SandboxData_C2S7_20210305/C2S7N02020/scenario_004/case.raw
0,100.0,33,0,0,60.0
GRID OPTIMIZATION COMPETITION CHALLENGE 2
INPUT DATA FILES ARE RAW JSON CON
1,'ADAMS 1 1',69.0,1,1,1,1,1.00679374,-19.678829,1.1,0.9,1.1,0.9
2,'ADAMS 2 1',69.0,1,1,1,1,1.01618528,-20.870937,1.1,0.9,1.1,0.9
3,'ADAMS 3 1',69.0,1,1,1,1,0.99685544,-18.045237,1.1,0.9,1.1,0.9
4,'ALEXANDRIA~1',69.0,1,1,1,1,1.02082145,-22.002365,1.1,0.9,1.1,0.9
5,'ALEXANDRIA~2',69.0,1,1,1,1,1.02080405,-22.003762,1.1,0.9,1.1,0.9
6,'ALEXANDRIA~3',69.0,1,1,1,1,1.023651,-21.131514,1.1,0.9,1.1,0.9
7,'ANTIOCH 1 1',138.0,1,1,1,1,1.01459014,-22.20939,1.1,0.9,1.1,0.9
8,'ANTIOCH 1 2',69.0,1,1,1,1,1.01414347,-23.831095,1.1,0.9,1.1,0.9
9,'ANTIOCH 1 3',138.0,1,1,1,1,1.01480722,-22.140599,1.1,0.9,1.1,0.9
10,'ANTIOCH 2 1',138.0,1,1,1,1,1.01567519,-21.233065,1.1,0.9,1.1,0.9
11,'ANTIOCH 2 2',69.0,1,1,1,1,1.00629902,-23.562899,1.1,0.9,1.1,0.9
12,'ANTIOCH 3 1',69.0,1,1,1,1,1.00607002,-23.241781,1.1,0.9,1.1,0.9
13,'ANTIOCH 4 1',138.0,1,1,1,1,1.01726735,-21.350347,1.1,0.9,1.1,0.9
14,'ANTIOCH 4 2',69.0,1,1,1,1,1.00585115,-23.711668,1.1,0.9,1.1,0.9
15,'ANTIOCH 5 1',69.0,1,1,1,1,1.00733733,-24.318076,1.1,0.9,1.1,0.9
16,'ASHLAND CI~1',69.0,1,1,1,1,0.99694842,-19.399694,1.1,0.9,1.1,0.9
17,'ASHLAND CI~2',69.0,1,1,1,1,0.99395299,-19.980863,1.1,0.9,1.1,0.9
18,'ASHLAND CI~3',69.0,1,1,1,1,1.00006783,-18.877248,1.1,0.9,1.1,0.9
19,'ASHLAND CI~4',138.0,1,1,1,1,1.02170408,-15.966218,1.1,0.9,1.1,0.9
20,'ASHLAND CI~5',69.0,1,1,1,1,1.00555718,-18.369311,1.1,0.9,1.1,0.9
21,'ASHLAND CI~6',138.0,1,1,1,1,1.0215987,-15.947115,1.1,0.9,1.1,0.9
22,'BEECHGROVE 1',69.0,1,1,1,1,1.02989745,-23.175132,1.1,0.9,1.1,0.9
23,'BELL BUCKL~1',69.0,1,1,1,1,1.00941575,-25.303534,1.1,0.9,1.1,0.9
24,'BELL BUCKL~2',69.0,1,1,1,1,1.0038451,-25.222393,1.1,0.9,1.1,0.9
25,'BELL BUCKL~3',69.0,1,1,1,1,1.01470041,-23.563406,1.1,0.9,1.1,0.9
26,'BELL BUCKL~4',69.0,1,1,1,1,1.01465344,-23.567382,1.1,0.9,1.1,0.9
27,'BETHPAGE 1 1',69.0,1,1,1,1,1.01038527,-24.058646,1.1,0.9,1.1,0.9
28,'BETHPAGE 1 2',69.0,1,1,1,1,1.01036441,-24.062196,1.1,0.9,1.1,0.9
29,'BETHPAGE 2 1',69.0,1,1,1,1,1.01260448,-23.219062,1.1,0.9,1.1,0.9
30,'BIG ROCK 1',69.0,1,1,1,1,0.99755204,-11.130691,1.1,0.9,1.1,0.9
31,'BON AQUA 1 1',69.0,1,1,1,1,1.00129616,-20.421065,1.1,0.9,1.1,0.9
32,'BON AQUA 2 1',69.0,1,1,1,1,1.01540887,-19.289581,1.1,0.9,1.1,0.9
33,'BON AQUA 3 1',69.0,1,1,1,1,1.03412056,-19.954492,1.1,0.9,1.1,0.9
34,'BRENTWOOD ~1',138.0,1,1,1,1,1.0164628,-18.790779,1.1,0.9,1.1,0.9
35,'BRENTWOOD ~2',69.0,1,1,1,1,1.0133177,-22.067971,1.1,0.9,1.1,0.9
36,'BRENTWOOD ~3',138.0,1,1,1,1,1.01694489,-18.707564,1.1,0.9,1.1,0.9
37,'BRENTWOOD ~4',138.0,1,1,1,1,1.01454103,-19.378556,1.1,0.9,1.1,0.9
38,'BRENTWOOD ~5',69.0,1,1,1,1,1.01376605,-22.947221,1.1,0.9,1.1,0.9
39,'BRENTWOOD ~6',69.0,1,1,1,1,1.015733,-22.747129,1.1,0.9,1.1,0.9
40,'BRENTWOOD ~7',69.0,1,1,1,1,1.01583946,-22.761223,1.1,0.9,1.1,0.9
41,'BRENTWOOD ~8',69.0,1,1,1,1,1.01334155,-22.478574,1.1,0.9,1.1,0.9
42,'BRENTWOOD ~9',69.0,1,1,1,1,1.00481009,-23.401114,1.1,0.9,1.1,0.9
43,'BRENTWOOD~10',69.0,1,1,1,1,1.00471234,-23.421041,1.1,0.9,1.1,0.9
44,'BURNS 1 1',69.0,1,1,1,1,1.02343118,-20.424935,1.1,0.9,1.1,0.9
45,'BURNS 1 2',69.0,1,1,1,1,1.02345455,-20.422399,1.1,0.9,1.1,0.9
46,'BURNS 2 1',69.0,1,1,1,1,0.9944163,-21.10661,1.1,0.9,1.1,0.9
47,'CARTHAGE 1 1',69.0,1,1,1,1,1.01886618,-22.042687,1.1,0.9,1.1,0.9
48,'CARTHAGE 2 1',69.0,1,1,1,1,1.01900887,-22.170574,1.1,0.9,1.1,0.9
49,'CARTHAGE 2 2',69.0,1,1,1,1,1.01902747,-22.167971,1.1,0.9,1.1,0.9
50,'CARTHAGE 3 1',69.0,1,1,1,1,1.01511288,-22.382962,1.1,0.9,1.1,0.9
51,'CARTHAGE 3 2',69.0,1,1,1,1,1.01506019,-22.389357,1.1,0.9,1.1,0.9
52,'CEDAR HILL~1',69.0,1,1,1,1,0.99851853,-18.213485,1.1,0.9,1.1,0.9
53,'CEDAR HILL~2',69.0,1,1,1,1,0.9969902,-18.163082,1.1,0.9,1.1,0.9
54,'CEDAR HILL~3',69.0,1,1,1,1,0.99697405,-18.1647,1.1,0.9,1.1,0.9
55,'CENTERVILL~1',138.0,1,1,1,1,1.02329612,-15.900368,1.1,0.9,1.1,0.9
56,'CENTERVILL~2',69.0,1,1,1,1,1.00815642,-16.564015,1.1,0.9,1.1,0.9
57,'CENTERVILL~3',138.0,1,1,1,1,1.02321517,-15.906841,1.1,0.9,1.1,0.9
58,'CENTERVILL~4',69.0,1,1,1,1,1.00861156,-15.649128,1.1,0.9,1.1,0.9
59,'CENTERVILL~5',69.0,1,1,1,1,1.00437188,-17.242473,1.1,0.9,1.1,0.9
60,'CHAPEL HIL~1',69.0,1,1,1,1,1.01905477,-24.956825,1.1,0.9,1.1,0.9
61,'CHAPEL HIL~2',69.0,1,1,1,1,1.00039792,-24.31888,1.1,0.9,1.1,0.9
62,'CHAPEL HIL~3',69.0,1,1,1,1,1.03129017,-24.940185,1.1,0.9,1.1,0.9
63,'CHAPMANSBO~1',69.0,1,1,1,1,0.99820912,-18.413946,1.1,0.9,1.1,0.9
64,'CHAPMANSBO~2',69.0,1,1,1,1,1.00794125,-18.028527,1.1,0.9,1.1,0.9
65,'CHARLOTTE ~1',69.0,1,1,1,1,1.00026333,-16.764716,1.1,0.9,1.1,0.9
66,'CHARLOTTE ~2',69.0,1,1,1,1,1.00527203,-16.629868,1.1,0.9,1.1,0.9
67,'CHARLOTTE ~3',69.0,1,1,1,1,1.0013907,-17.205605,1.1,0.9,1.1,0.9
68,'CHRISTIANA~1',69.0,1,1,1,1,1.02056444,-24.730496,1.1,0.9,1.1,0.9
69,'CHRISTIANA~2',69.0,1,1,1,1,1.03526366,-24.133142,1.1,0.9,1.1,0.9
70,'CLARKSVILL~1',138.0,1,1,1,1,1.01253223,-13.817291,1.1,0.9,1.1,0.9
71,'CLARKSVILL~2',69.0,1,1,1,1,1.01087725,-14.885738,1.1,0.9,1.1,0.9
72,'CLARKSVILL~3',138.0,1,1,1,1,1.01237655,-13.843596,1.1,0.9,1.1,0.9
73,'CLARKSVIL~12',138.0,1,1,1,1,1.00719404,-15.312645,1.1,0.9,1.1,0.9
74,'CLARKSVIL~13',69.0,1,1,1,1,0.99370176,-17.949392,1.1,0.9,1.1,0.9
75,'CLARKSVIL~14',138.0,1,1,1,1,1.00742364,-15.290741,1.1,0.9,1.1,0.9
76,'CLARKSVIL~15',345.0,1,1,1,1,1.02874267,-12.122888,1.1,0.9,1.1,0.9
77,'CLARKSVIL~16',138.0,1,1,1,1,1.01860213,-14.043412,1.1,0.9,1.1,0.9
78,'CLARKSVIL~17',69.0,1,1,1,1,1.00584865,-15.955648,1.1,0.9,1.1,0.9
79,'CLARKSVIL~18',69.0,1,1,1,1,1.00169623,-15.803731,1.1,0.9,1.1,0.9
80,'CLARKSVIL~19',69.0,1,1,1,1,0.9967249,-15.617248,1.1,0.9,1.1,0.9
81,'CLARKSVIL~20',69.0,1,1,1,1,0.99881667,-16.281808,1.1,0.9,1.1,0.9
82,'CLARKSVIL~21',138.0,1,1,1,1,1.01256764,-14.697333,1.1,0.9,1.1,0.9
83,'CLARKSVIL~22',69.0,1,1,1,1,0.99886024,-16.328841,1.1,0.9,1.1,0.9
84,'CLARKSVIL~23',138.0,1,1,1,1,1.01270044,-14.688448,1.1,0.9,1.1,0.9
85,'CLARKSVIL~24',138.0,1,1,1,1,1.0170815,-13.745083,1.1,0.9,1.1,0.9
86,'CLARKSVIL~25',69.0,1,1,1,1,1.0061785,-15.280655,1.1,0.9,1.1,0.9
87,'CLARKSVIL~26',138.0,1,1,1,1,1.0168612,-13.765216,1.1,0.9,1.1,0.9
88,'CLARKSVIL~27',138.0,1,1,1,1,1.01446664,-12.007254,1.1,0.9,1.1,0.9
89,'CLARKSVIL~28',69.0,1,1,1,1,0.99764913,-14.390937,1.1,0.9,1.1,0.9
90,'CLARKSVILL~4',138.0,1,1,1,1,1.01828563,-15.25192,1.1,0.9,1.1,0.9
91,'CLARKSVILL~5',69.0,1,1,1,1,1.01313746,-17.385826,1.1,0.9,1.1,0.9
92,'CLARKSVILL~6',138.0,1,1,1,1,1.01842058,-15.23053,1.1,0.9,1.1,0.9
93,'CLARKSVILL~7',69.0,1,1,1,1,1.00332201,-16.066804,1.1,0.9,1.1,0.9
94,'CLARKSVILL~8',69.0,1,1,1,1,1.00337136,-16.061156,1.1,0.9,1.1,0.9
95,'CLARKSVILL~9',69.0,1,1,1,1,0.99798977,-17.911649,1.1,0.9,1.1,0.9
96,'CLARKSVIL~10',138.0,1,1,1,1,1.01604986,-14.327671,1.1,0.9,1.1,0.9
97,'CLARKSVIL~11',69.0,1,1,1,1,1.00562859,-15.687273,1.1,0.9,1.1,0.9
98,'COLLEGE GR~1',69.0,1,1,1,1,1.02179027,-23.694643,1.1,0.9,1.1,0.9
99,'COLLEGE GR~2',69.0,1,1,1,1,1.01840174,-23.778952,1.1,0.9,1.1,0.9
100,'COLLEGE GR~3',69.0,1,1,1,1,1.00904679,-24.78949,1.1,0.9,1.1,0.9
101,'CORNERSVIL~1',69.0,1,1,1,1,1.00440598,-21.611591,1.1,0.9,1.1,0.9
102,'CORNERSVIL~2',69.0,1,1,1,1,1.00437617,-21.614946,1.1,0.9,1.1,0.9
103,'COTTONTOWN~1',69.0,1,1,1,1,1.02570808,-23.099495,1.1,0.9,1.1,0.9
104,'COTTONTOWN~2',69.0,1,1,1,1,1.02826369,-25.336867,1.1,0.9,1.1,0.9
105,'CROSS PLAI~1',69.0,1,1,1,1,1.02192545,-24.808852,1.1,0.9,1.1,0.9
106,'CUMBERLAND~7',69.0,1,1,1,1,1.01862562,-11.662565,1.1,0.9,1.1,0.9
107,'CUMBERLAND~8',69.0,1,1,1,1,1.00856376,-15.976907,1.1,0.9,1.1,0.9
108,'CUMBERLAND~9',69.0,1,1,1,1,1.00266266,-15.793301,1.1,0.9,1.1,0.9
109,'CUNNINGHAM 1',69.0,1,1,1,1,0.9972052,-16.612897,1.1,0.9,1.1,0.9
110,'DICKSON 1 1',69.0,1,1,1,1,1.02270937,-18.718162,1.1,0.9,1.1,0.9
111,'DICKSON 1 2',69.0,1,1,1,1,1.02265942,-18.726181,1.1,0.9,1.1,0.9
112,'DICKSON 2 1',138.0,1,1,1,1,1.02038336,-15.512715,1.1,0.9,1.1,0.9
113,'DICKSON 2 2',69.0,1,1,1,1,1.00393796,-17.241271,1.1,0.9,1.1,0.9
114,'DICKSON 2 3',138.0,1,1,1,1,1.02051306,-15.504915,1.1,0.9,1.1,0.9
115,'DICKSON 3 1',138.0,1,1,1,1,1.02023959,-12.36961,1.1,0.9,1.1,0.9
116,'DICKSON 3 2',69.0,1,1,1,1,1.00996983,-14.748941,1.1,0.9,1.1,0.9
117,'DICKSON 4 1',69.0,1,1,1,1,1.00261295,-17.194544,1.1,0.9,1.1,0.9
118,'DOVER 1 1',138.0,1,1,1,1,1.0269506,-9.895555,1.1,0.9,1.1,0.9
119,'DOVER 1 2',69.0,1,1,1,1,1.01765645,-8.569727,1.1,0.9,1.1,0.9
120,'DOVER 1 3',138.0,1,1,1,1,1.02699995,-9.913191,1.1,0.9,1.1,0.9
121,'DOVER 2 1',69.0,1,1,1,1,1.01073849,-9.041016,1.1,0.9,1.1,0.9
122,'DOVER 3 1',69.0,1,1,1,1,1.02000666,-7.906673,1.1,0.9,1.1,0.9
123,'DOVER 3 2',69.0,1,1,1,1,1.01998425,-7.910532,1.1,0.9,1.1,0.9
124,'DOWELLTOWN 1',69.0,1,1,1,1,1.02496982,-20.505022,1.1,0.9,1.1,0.9
125,'ERIN 1 1',69.0,1,1,1,1,1.01297307,-13.658829,1.1,0.9,1.1,0.9
126,'ERIN 2 1',69.0,1,1,1,1,0.99974811,-16.184618,1.1,0.9,1.1,0.9
127,'ERIN 3 1',69.0,1,1,1,1,1.02114689,-9.674148,1.1,0.9,1.1,0.9
128,'FAIRVIEW 1 1',69.0,1,1,1,1,0.98773068,-22.194763,1.1,0.9,1.1,0.9
129,'FAIRVIEW 2 1',69.0,1,1,1,1,1.00378191,-22.231161,1.1,0.9,1.1,0.9
130,'FAIRVIEW 3 1',138.0,1,1,1,1,1.02995121,-17.244705,1.1,0.9,1.1,0.9
131,'FAIRVIEW 3 2',69.0,1,1,1,1,1.01274204,-21.130737,1.1,0.9,1.1,0.9
132,'FRANKLIN 1 1',69.0,1,1,1,1,0.97547358,-25.198217,1.1,0.9,1.1,0.9
133,'FRANKLIN 2 1',69.0,1,1,1,1,0.9781431,-24.747495,1.1,0.9,1.1,0.9
134,'FRANKLIN 3 1',138.0,1,1,1,1,0.9983384,-20.722683,1.1,0.9,1.1,0.9
135,'FRANKLIN 3 2',69.0,1,1,1,1,0.97132301,-25.616303,1.1,0.9,1.1,0.9
136,'FRANKLIN 4 1',138.0,1,1,1,1,1.01457942,-19.258027,1.1,0.9,1.1,0.9
137,'FRANKLIN 4 2',69.0,1,1,1,1,0.97957355,-24.786857,1.1,0.9,1.1,0.9
138,'FRANKLIN 5 1',69.0,1,1,1,1,0.98445499,-24.182075,1.1,0.9,1.1,0.9
139,'GALLATIN 1 1',138.0,1,1,1,1,1.02780366,-19.495981,1.1,0.9,1.1,0.9
140,'GALLATIN 1 2',69.0,1,1,1,1,1.02028251,-21.123285,1.1,0.9,1.1,0.9
141,'GALLATIN 2 1',69.0,1,1,1,1,1.02556098,-20.605718,1.1,0.9,1.1,0.9
142,'GALLATIN 2 2',69.0,1,1,1,1,1.02546263,-20.617269,1.1,0.9,1.1,0.9
143,'GALLATIN 3 1',138.0,1,1,1,1,1.03269827,-19.925781,1.1,0.9,1.1,0.9
144,'GALLATIN 3 2',69.0,1,1,1,1,1.01620483,-22.325904,1.1,0.9,1.1,0.9
145,'FRANKLIN 6 1',69.0,1,1,1,1,1.01416206,-23.259432,1.1,0.9,1.1,0.9
146,'FRANKLIN 7 1',69.0,1,1,1,1,1.01793587,-22.963653,1.1,0.9,1.1,0.9
147,'FRANKLIN 8 1',69.0,1,1,1,1,1.01014757,-22.729217,1.1,0.9,1.1,0.9
148,'FRANKLIN 9 1',69.0,1,1,1,1,1.02135742,-23.57881,1.1,0.9,1.1,0.9
149,'FRANKLIN 1~1',69.0,1,1,1,1,1.01179898,-22.518516,1.1,0.9,1.1,0.9
150,'FRANKLIN 1~2',69.0,1,1,1,1,1.01174724,-22.524671,1.1,0.9,1.1,0.9
151,'FRANKLIN 1~3',69.0,1,1,1,1,1.01156104,-22.209948,1.1,0.9,1.1,0.9
152,'FRANKLIN 1~4',69.0,1,1,1,1,1.00693393,-22.650835,1.1,0.9,1.1,0.9
153,'FRANKLIN 1~5',69.0,1,1,1,1,0.96513379,-26.415851,1.1,0.9,1.1,0.9
154,'GOODLETTSV~1',69.0,1,1,1,1,1.04043984,-24.284618,1.1,0.9,1.1,0.9
155,'GOODLETTSV~2',69.0,1,1,1,1,1.0102036,-22.09037,1.1,0.9,1.1,0.9
156,'GOODLETTSV~3',138.0,1,1,1,1,1.02345109,-20.20295,1.1,0.9,1.1,0.9
157,'GOODLETTSV~4',69.0,1,1,1,1,1.01549137,-22.009781,1.1,0.9,1.1,0.9
158,'GREENBRIER~1',69.0,1,1,1,1,0.99887305,-20.314762,1.1,0.9,1.1,0.9
159,'GREENBRIER~2',69.0,1,1,1,1,1.01201284,-22.086617,1.1,0.9,1.1,0.9
160,'GREENBRIER~3',69.0,1,1,1,1,1.01155913,-22.70769,1.1,0.9,1.1,0.9
161,'HARTSVILLE~1',69.0,1,1,1,1,1.01988864,-22.250984,1.1,0.9,1.1,0.9
162,'HARTSVILLE~2',138.0,1,1,1,1,1.03103793,-19.142536,1.1,0.9,1.1,0.9
163,'HARTSVILLE~3',69.0,1,1,1,1,1.02577412,-21.362981,1.1,0.9,1.1,0.9
164,'HENDERSONV~1',69.0,1,1,1,1,1.01217556,-21.83453,1.1,0.9,1.1,0.9
165,'HENDERSONV~2',138.0,1,1,1,1,1.02417779,-20.144815,1.1,0.9,1.1,0.9
166,'HENDERSONV~3',69.0,1,1,1,1,1.01222086,-21.668382,1.1,0.9,1.1,0.9
167,'HENDERSONV~4',69.0,1,1,1,1,1.01998675,-22.06454,1.1,0.9,1.1,0.9
168,'HENDERSONV~5',138.0,1,1,1,1,1.02528739,-19.733349,1.1,0.9,1.1,0.9
169,'HENDERSONV~6',69.0,1,1,1,1,1.01593196,-21.519956,1.1,0.9,1.1,0.9
170,'HENDERSONV~7',138.0,1,1,1,1,1.02510369,-19.754724,1.1,0.9,1.1,0.9
171,'HENDERSONV~8',69.0,1,1,1,1,1.00895071,-21.822743,1.1,0.9,1.1,0.9
172,'HERMITAGE ~1',69.0,1,1,1,1,1.00324857,-23.677722,1.1,0.9,1.1,0.9
173,'HERMITAGE ~2',138.0,1,1,1,1,1.01872432,-20.765631,1.1,0.9,1.1,0.9
174,'HERMITAGE ~3',69.0,1,1,1,1,1.0074172,-23.869018,1.1,0.9,1.1,0.9
175,'HERMITAGE ~4',69.0,1,1,1,1,1.00840175,-22.422731,1.1,0.9,1.1,0.9
176,'HERMITAGE ~5',69.0,1,1,1,1,1.01436627,-22.277748,1.1,0.9,1.1,0.9
177,'JOELTON 1 1',69.0,1,1,1,1,0.98811936,-23.650828,1.1,0.9,1.1,0.9
178,'JOELTON 1 2',69.0,1,1,1,1,0.9881807,-23.647228,1.1,0.9,1.1,0.9
179,'JOELTON 2 1',69.0,1,1,1,1,0.99718183,-19.805114,1.1,0.9,1.1,0.9
180,'KINGSTON S~1',69.0,1,1,1,1,0.99400604,-20.822409,1.1,0.9,1.1,0.9
181,'KINGSTON S~2',69.0,1,1,1,1,1.0067668,-21.002304,1.1,0.9,1.1,0.9
182,'KINGSTON S~3',69.0,1,1,1,1,1.00674295,-21.006791,1.1,0.9,1.1,0.9
183,'KINGSTON S~4',69.0,1,1,1,1,0.99490994,-21.48568,1.1,0.9,1.1,0.9
184,'LAFAYETTE ~1',138.0,1,1,1,1,1.03093374,-25.285977,1.1,0.9,1.1,0.9
185,'LAFAYETTE ~2',69.0,1,1,1,1,1.02349496,-25.844189,1.1,0.9,1.1,0.9
186,'LAFAYETTE ~3',138.0,1,1,1,1,1.03100514,-25.28269,1.1,0.9,1.1,0.9
187,'LAFAYETTE ~4',69.0,1,1,1,1,1.01914728,-21.948454,1.1,0.9,1.1,0.9
188,'LAFAYETTE ~5',138.0,1,1,1,1,1.03378451,-25.113362,1.1,0.9,1.1,0.9
189,'LAFAYETTE ~6',69.0,1,1,1,1,1.02642119,-24.999935,1.1,0.9,1.1,0.9
190,'LAFAYETTE ~7',138.0,1,1,1,1,1.03374004,-25.119839,1.1,0.9,1.1,0.9
191,'LASCASSAS ~1',69.0,1,1,1,1,1.0208503,-21.826131,1.1,0.9,1.1,0.9
192,'LASCASSAS ~2',69.0,1,1,1,1,1.03615093,-22.550831,1.1,0.9,1.1,0.9
193,'LA VERGNE ~1',69.0,1,1,1,1,1.01628733,-22.202529,1.1,0.9,1.1,0.9
194,'LA VERGNE ~2',69.0,1,1,1,1,1.01181912,-23.850884,1.1,0.9,1.1,0.9
195,'LA VERGNE ~3',69.0,1,1,1,1,1.00967157,-23.941768,1.1,0.9,1.1,0.9
196,'LA VERGNE ~4',69.0,1,1,1,1,1.0253849,-24.114246,1.1,0.9,1.1,0.9
197,'LEBANON 1 1',138.0,1,1,1,1,1.02890909,-19.798656,1.1,0.9,1.1,0.9
198,'LEBANON 1 2',69.0,1,1,1,1,1.0277406,-20.876301,1.1,0.9,1.1,0.9
199,'LEBANON 1 3',138.0,1,1,1,1,1.02882111,-19.813197,1.1,0.9,1.1,0.9
200,'LEBANON 2 1',138.0,1,1,1,1,1.02780104,-20.478229,1.1,0.9,1.1,0.9
...
0 / END OF BUS DATA BEGIN LOAD DATA
1,'1',1,1,1,3.207,0.3,0.0,0.0,0.0,0.0,1,1,0
2,'1',1,1,1,3.319,1.104,0.0,0.0,0.0,0.0,1,1,0
3,'1',1,1,1,5.477,1.529,0.0,0.0,0.0,0.0,1,1,0
5,'1',1,1,1,2.634,0.924,0.0,0.0,0.0,0.0,1,1,0
6,'1',1,1,1,2.824,0.291,0.0,0.0,0.0,0.0,1,1,0
8,'1',1,1,1,24.02,3.577,0.0,0.0,0.0,0.0,1,1,0
11,'1',1,1,1,21.421,6.745,0.0,0.0,0.0,0.0,1,1,0
12,'1',1,1,1,49.442,8.454,0.0,0.0,0.0,0.0,1,1,0
14,'1',1,1,1,39.098,9.009,0.0,0.0,0.0,0.0,1,1,0
15,'1',1,1,1,31.763,7.73,0.0,0.0,0.0,0.0,1,1,0
16,'1',1,1,1,6.702,0.762,0.0,0.0,0.0,0.0,1,1,0
17,'1',1,1,1,7.109,3.201,0.0,0.0,0.0,0.0,1,1,0
18,'1',1,1,1,12.046,7.786,0.0,0.0,0.0,0.0,1,1,0
20,'1',1,1,1,8.178,2.35,0.0,0.0,0.0,0.0,1,1,0
22,'1',1,1,1,4.352,1.533,0.0,0.0,0.0,0.0,1,1,0
23,'1',1,1,1,4.238,0.865,0.0,0.0,0.0,0.0,1,1,0
24,'1',1,1,1,5.56,1.862,0.0,0.0,0.0,0.0,1,1,0
26,'1',1,1,1,2.202,0.434,0.0,0.0,0.0,0.0,1,1,0
28,'1',1,1,1,5.766,0.499,0.0,0.0,0.0,0.0,1,1,0
29,'1',1,1,1,7.267,1.725,0.0,0.0,0.0,0.0,1,1,0
30,'1',1,1,1,9.026,4.534,0.0,0.0,0.0,0.0,1,1,0
31,'1',1,1,1,3.24,0.51,0.0,0.0,0.0,0.0,1,1,0
32,'1',1,1,1,9.054,3.321,0.0,0.0,0.0,0.0,1,1,0
33,'1',1,1,1,6.013,0.601,0.0,0.0,0.0,0.0,1,1,0
35,'1',1,1,1,38.25,4.35,0.0,0.0,0.0,0.0,1,1,0
38,'1',1,1,1,17.489,8.936,0.0,0.0,0.0,0.0,1,1,0
40,'1',1,1,1,18.306,0.582,0.0,0.0,0.0,0.0,1,1,0
41,'1',1,1,1,19.965,5.52,0.0,0.0,0.0,0.0,1,1,0
43,'1',1,1,1,30.736,2.362,0.0,0.0,0.0,0.0,1,1,0
44,'1',1,1,1,4.139,1.035,0.0,0.0,0.0,0.0,1,1,0
46,'1',1,1,1,5.856,3.294,0.0,0.0,0.0,0.0,1,1,0
47,'1',1,1,1,4.752,1.602,0.0,0.0,0.0,0.0,1,1,0
48,'1',1,1,1,4.374,0.756,0.0,0.0,0.0,0.0,1,1,0
51,'1',1,1,1,10.162,2.19,0.0,0.0,0.0,0.0,1,1,0
52,'1',1,1,1,4.27,0.318,0.0,0.0,0.0,0.0,1,1,0
54,'1',1,1,1,2.699,0.791,0.0,0.0,0.0,0.0,1,1,0
57,'1',1,1,1,11.92,4.273,0.0,0.0,0.0,0.0,1,1,0
58,'1',1,1,1,9.541,3.557,0.0,0.0,0.0,0.0,1,1,0
59,'1',1,1,1,10.14,2.58,0.0,0.0,0.0,0.0,1,1,0
60,'1',1,1,1,4.13,0.853,0.0,0.0,0.0,0.0,1,1,0
61,'1',1,1,1,7.981,3.78,0.0,0.0,0.0,0.0,1,1,0
62,'1',1,1,1,2.88,0.6,0.0,0.0,0.0,0.0,1,1,0
63,'1',1,1,1,4.261,0.568,0.0,0.0,0.0,0.0,1,1,0
64,'1',1,1,1,3.036,0.41,0.0,0.0,0.0,0.0,1,1,0
65,'1',1,1,1,5.252,1.251,0.0,0.0,0.0,0.0,1,1,0
66,'1',1,1,1,3.273,0.696,0.0,0.0,0.0,0.0,1,1,0
67,'1',1,1,1,3.145,0.322,0.0,0.0,0.0,0.0,1,1,0
68,'1',1,1,1,7.302,2.696,0.0,0.0,0.0,0.0,1,1,0
69,'1',1,1,1,3.502,1.415,0.0,0.0,0.0,0.0,1,1,0
72,'1',1,1,1,40.907,5.028,0.0,0.0,0.0,0.0,1,1,0
74,'1',1,1,1,43.8,17.145,0.0,0.0,0.0,0.0,1,1,0
78,'1',1,1,1,20.269,6.74,0.0,0.0,0.0,0.0,1,1,0
79,'1',1,1,1,22.57,9.716,0.0,0.0,0.0,0.0,1,1,0
80,'1',1,1,1,29.215,8.345,0.0,0.0,0.0,0.0,1,1,0
81,'1',1,1,1,25.269,5.918,0.0,0.0,0.0,0.0,1,1,0
83,'1',1,1,1,24.504,4.739,0.0,0.0,0.0,0.0,1,1,0
87,'1',1,1,1,34.8,12.43,0.0,0.0,0.0,0.0,1,1,0
89,'1',1,1,1,32.859,5.297,0.0,0.0,0.0,0.0,1,1,0
91,'1',1,1,1,18.281,2.345,0.0,0.0,0.0,0.0,1,1,0
93,'1',1,1,1,20.857,9.922,0.0,0.0,0.0,0.0,1,1,0
95,'1',1,1,1,15.576,0.732,0.0,0.0,0.0,0.0,1,1,0
97,'1',1,1,1,26.76,10.06,0.0,0.0,0.0,0.0,1,1,0
98,'1',1,1,1,4.548,0.715,0.0,0.0,0.0,0.0,1,1,0
99,'1',1,1,1,3.559,0.677,0.0,0.0,0.0,0.0,1,1,0
100,'1',1,1,1,3.143,1.156,0.0,0.0,0.0,0.0,1,1,0
102,'1',1,1,1,6.084,1.438,0.0,0.0,0.0,0.0,1,1,0
103,'1',1,1,1,4.972,2.0,0.0,0.0,0.0,0.0,1,1,0
104,'1',1,1,1,15.67,3.389,0.0,0.0,0.0,0.0,1,1,0
105,'1',1,1,1,2.958,1.482,0.0,0.0,0.0,0.0,1,1,0
106,'1',1,1,1,3.783,0.793,0.0,0.0,0.0,0.0,1,1,0
107,'1',1,1,1,5.117,0.617,0.0,0.0,0.0,0.0,1,1,0
108,'1',1,1,1,5.916,0.403,0.0,0.0,0.0,0.0,1,1,0
109,'1',1,1,1,6.99,2.97,0.0,0.0,0.0,0.0,1,1,0
111,'1',1,1,1,14.355,1.046,0.0,0.0,0.0,0.0,1,1,0
113,'1',1,1,1,16.704,5.334,0.0,0.0,0.0,0.0,1,1,0
116,'1',1,1,1,17.319,5.747,0.0,0.0,0.0,0.0,1,1,0
117,'1',1,1,1,17.57,4.87,0.0,0.0,0.0,0.0,1,1,0
119,'1',1,1,1,13.239,4.787,0.0,0.0,0.0,0.0,1,1,0
121,'1',1,1,1,4.935,1.222,0.0,0.0,0.0,0.0,1,1,0
123,'1',1,1,1,6.14,0.8,0.0,0.0,0.0,0.0,1,1,0
124,'1',1,1,1,9.42,3.48,0.0,0.0,0.0,0.0,1,1,0
125,'1',1,1,1,5.023,0.959,0.0,0.0,0.0,0.0,1,1,0
126,'1',1,1,1,3.67,1.158,0.0,0.0,0.0,0.0,1,1,0
127,'1',1,1,1,4.818,0.801,0.0,0.0,0.0,0.0,1,1,0
128,'1',1,1,1,13.693,8.06,0.0,0.0,0.0,0.0,1,1,0
129,'1',1,1,1,10.62,1.015,0.0,0.0,0.0,0.0,1,1,0
131,'1',1,1,1,15.702,6.007,0.0,0.0,0.0,0.0,1,1,0
132,'1',1,1,1,21.258,2.812,0.0,0.0,0.0,0.0,1,1,0
133,'1',1,1,1,33.937,13.116,0.0,0.0,0.0,0.0,1,1,0
135,'1',1,1,1,26.107,6.219,0.0,0.0,0.0,0.0,1,1,0
137,'1',1,1,1,15.012,2.424,0.0,0.0,0.0,0.0,1,1,0
138,'1',1,1,1,22.204,4.215,0.0,0.0,0.0,0.0,1,1,0
140,'1',1,1,1,54.759,3.674,0.0,0.0,0.0,0.0,1,1,0
142,'1',1,1,1,21.48,4.947,0.0,0.0,0.0,0.0,1,1,0
144,'1',1,1,1,24.258,8.153,0.0,0.0,0.0,0.0,1,1,0
145,'1',1,1,1,15.001,4.109,0.0,0.0,0.0,0.0,1,1,0
146,'1',1,1,1,13.836,2.548,0.0,0.0,0.0,0.0,1,1,0
147,'1',1,1,1,20.072,3.409,0.0,0.0,0.0,0.0,1,1,0
148,'1',1,1,1,13.363,3.982,0.0,0.0,0.0,0.0,1,1,0
150,'1',1,1,1,11.22,1.919,0.0,0.0,0.0,0.0,1,1,0
151,'1',1,1,1,10.717,8.168,0.0,0.0,0.0,0.0,1,1,0
152,'1',1,1,1,9.613,0.204,0.0,0.0,0.0,0.0,1,1,0
153,'1',1,1,1,18.42,2.97,0.0,0.0,0.0,0.0,1,1,0
154,'1',1,1,1,22.52,7.09,0.0,0.0,0.0,0.0,1,1,0
155,'1',1,1,1,14.584,3.698,0.0,0.0,0.0,0.0,1,1,0
157,'1',1,1,1,9.108,2.37,0.0,0.0,0.0,0.0,1,1,0
158,'1',1,1,1,15.817,5.862,0.0,0.0,0.0,0.0,1,1,0
159,'1',1,1,1,11.26,1.907,0.0,0.0,0.0,0.0,1,1,0
160,'1',1,1,1,11.57,1.65,0.0,0.0,0.0,0.0,1,1,0
161,'1',1,1,1,6.66,2.373,0.0,0.0,0.0,0.0,1,1,0
163,'1',1,1,1,12.07,4.13,0.0,0.0,0.0,0.0,1,1,0
164,'1',1,1,1,41.234,16.89,0.0,0.0,0.0,0.0,1,1,0
166,'1',1,1,1,16.89,10.081,0.0,0.0,0.0,0.0,1,1,0
167,'1',1,1,1,26.989,2.383,0.0,0.0,0.0,0.0,1,1,0
170,'1',1,1,1,38.962,7.461,0.0,0.0,0.0,0.0,1,1,0
171,'1',1,1,1,32.912,14.57,0.0,0.0,0.0,0.0,1,1,0
172,'1',1,1,1,19.094,3.177,0.0,0.0,0.0,0.0,1,1,0
174,'1',1,1,1,19.377,0.939,0.0,0.0,0.0,0.0,1,1,0
175,'1',1,1,1,16.645,12.16,0.0,0.0,0.0,0.0,1,1,0
176,'1',1,1,1,20.92,5.71,0.0,0.0,0.0,0.0,1,1,0
177,'1',1,1,1,6.34,3.646,0.0,0.0,0.0,0.0,1,1,0
179,'1',1,1,1,9.086,1.831,0.0,0.0,0.0,0.0,1,1,0
180,'1',1,1,1,4.915,1.496,0.0,0.0,0.0,0.0,1,1,0
182,'1',1,1,1,7.94,0.796,0.0,0.0,0.0,0.0,1,1,0
183,'1',1,1,1,8.6,2.19,0.0,0.0,0.0,0.0,1,1,0
185,'1',1,1,1,15.699,1.436,0.0,0.0,0.0,0.0,1,1,0
187,'1',1,1,1,8.268,1.235,0.0,0.0,0.0,0.0,1,1,0
190,'1',1,1,1,11.893,1.777,0.0,0.0,0.0,0.0,1,1,0
191,'1',1,1,1,4.349,1.061,0.0,0.0,0.0,0.0,1,1,0
192,'1',1,1,1,2.784,0.525,0.0,0.0,0.0,0.0,1,1,0
193,'1',1,1,1,18.121,2.522,0.0,0.0,0.0,0.0,1,1,0
194,'1',1,1,1,12.731,9.902,0.0,0.0,0.0,0.0,1,1,0
195,'1',1,1,1,12.288,4.392,0.0,0.0,0.0,0.0,1,1,0
196,'1',1,1,1,22.037,1.829,0.0,0.0,0.0,0.0,1,1,0
199,'1',1,1,1,26.74,3.08,0.0,0.0,0.0,0.0,1,1,0
202,'1',1,1,1,27.215,11.368,0.0,0.0,0.0,0.0,1,1,0
203,'1',1,1,1,16.044,3.624,0.0,0.0,0.0,0.0,1,1,0
205,'1',1,1,1,29.95,5.77,0.0,0.0,0.0,0.0,1,1,0
207,'1',1,1,1,6.0,1.966,0.0,0.0,0.0,0.0,1,1,0
209,'1',1,1,1,8.712,2.631,0.0,0.0,0.0,0.0,1,1,0
210,'1',1,1,1,7.289,3.156,0.0,0.0,0.0,0.0,1,1,0
212,'1',1,1,1,24.316,5.452,0.0,0.0,0.0,0.0,1,1,0
214,'1',1,1,1,13.65,3.16,0.0,0.0,0.0,0.0,1,1,0
217,'1',1,1,1,14.548,2.379,0.0,0.0,0.0,0.0,1,1,0
220,'1',1,1,1,11.832,0.789,0.0,0.0,0.0,0.0,1,1,0
221,'1',1,1,1,5.227,1.709,0.0,0.0,0.0,0.0,1,1,0
222,'1',1,1,1,3.697,2.364,0.0,0.0,0.0,0.0,1,1,0
223,'1',1,1,1,2.94,0.61,0.0,0.0,0.0,0.0,1,1,0
224,'1',1,1,1,7.155,2.173,0.0,0.0,0.0,0.0,1,1,0
225,'1',1,1,1,4.614,2.028,0.0,0.0,0.0,0.0,1,1,0
226,'1',1,1,1,4.225,0.961,0.0,0.0,0.0,0.0,1,1,0
227,'1',1,1,1,5.197,1.4,0.0,0.0,0.0,0.0,1,1,0
231,'1',1,1,1,6.678,1.548,0.0,0.0,0.0,0.0,1,1,0
232,'1',1,1,1,31.68,13.875,0.0,0.0,0.0,0.0,1,1,0
233,'1',1,1,1,19.008,4.644,0.0,0.0,0.0,0.0,1,1,0
236,'1',1,1,1,17.488,1.234,0.0,0.0,0.0,0.0,1,1,0
237,'1',1,1,1,31.68,11.16,0.0,0.0,0.0,0.0,1,1,0
240,'1',1,1,1,53.79,15.285,0.0,0.0,0.0,0.0,1,1,0
241,'1',1,1,1,15.004,2.424,0.0,0.0,0.0,0.0,1,1,0
242,'1',1,1,1,19.736,11.21,0.0,0.0,0.0,0.0,1,1,0
243,'1',1,1,1,36.39,10.95,0.0,0.0,0.0,0.0,1,1,0
244,'1',1,1,1,19.048,5.519,0.0,0.0,0.0,0.0,1,1,0
245,'1',1,1,1,22.388,4.365,0.0,0.0,0.0,0.0,1,1,0
246,'1',1,1,1,36.24,5.475,0.0,0.0,0.0,0.0,1,1,0
247,'1',1,1,1,22.627,6.069,0.0,0.0,0.0,0.0,1,1,0
249,'1',1,1,1,14.496,1.47,0.0,0.0,0.0,0.0,1,1,0
250,'1',1,1,1,12.482,0.9,0.0,0.0,0.0,0.0,1,1,0
251,'1',1,1,1,9.002,2.377,0.0,0.0,0.0,0.0,1,1,0
252,'1',1,1,1,18.925,6.376,0.0,0.0,0.0,0.0,1,1,0
253,'1',1,1,1,10.089,3.707,0.0,0.0,0.0,0.0,1,1,0
255,'1',1,1,1,24.96,6.427,0.0,0.0,0.0,0.0,1,1,0
256,'1',1,1,1,21.853,8.36,0.0,0.0,0.0,0.0,1,1,0
258,'1',1,1,1,31.924,12.741,0.0,0.0,0.0,0.0,1,1,0
260,'1',1,1,1,22.254,4.665,0.0,0.0,0.0,0.0,1,1,0
261,'1',1,1,1,29.073,1.571,0.0,0.0,0.0,0.0,1,1,0
262,'1',1,1,1,32.312,11.682,0.0,0.0,0.0,0.0,1,1,0
263,'1',1,1,1,35.71,7.232,0.0,0.0,0.0,0.0,1,1,0
264,'1',1,1,1,25.53,4.02,0.0,0.0,0.0,0.0,1,1,0
267,'1',1,1,1,22.98,5.005,0.0,0.0,0.0,0.0,1,1,0
270,'1',1,1,1,28.295,6.53,0.0,0.0,0.0,0.0,1,1,0
272,'1',1,1,1,39.912,14.473,0.0,0.0,0.0,0.0,1,1,0
275,'1',1,1,1,16.581,2.816,0.0,0.0,0.0,0.0,1,1,0
276,'1',1,1,1,25.696,2.135,0.0,0.0,0.0,0.0,1,1,0
278,'1',1,1,1,26.246,3.983,0.0,0.0,0.0,0.0,1,1,0
279,'1',1,1,1,4.922,0.941,0.0,0.0,0.0,0.0,1,1,0
280,'1',1,1,1,6.02,0.525,0.0,0.0,0.0,0.0,1,1,0
281,'1',1,1,1,6.0,1.83,0.0,0.0,0.0,0.0,1,1,0
283,'1',1,1,1,11.341,2.257,0.0,0.0,0.0,0.0,1,1,0
284,'1',1,1,1,6.068,1.504,0.0,0.0,0.0,0.0,1,1,0
286,'1',1,1,1,2.91,0.715,0.0,0.0,0.0,0.0,1,1,0
287,'1',1,1,1,1.955,0.547,0.0,0.0,0.0,0.0,1,1,0
288,'1',1,1,1,14.42,3.29,0.0,0.0,0.0,0.0,1,1,0
289,'1',1,1,1,14.42,3.56,0.0,0.0,0.0,0.0,1,1,0
292,'1',1,1,1,32.765,4.747,0.0,0.0,0.0,0.0,1,1,0
293,'1',1,1,1,1.82,0.531,0.0,0.0,0.0,0.0,1,1,0
294,'1',1,1,1,6.13,0.89,0.0,0.0,0.0,0.0,1,1,0
295,'1',1,1,1,5.61,2.655,0.0,0.0,0.0,0.0,1,1,0
296,'1',1,1,1,5.709,0.826,0.0,0.0,0.0,0.0,1,1,0
298,'1',1,1,1,5.401,0.313,0.0,0.0,0.0,0.0,1,1,0
299,'1',1,1,1,4.384,0.677,0.0,0.0,0.0,0.0,1,1,0
...
0 / END OF LOAD DATA BEGIN FIXED SHUNT DATA
0 / END OF FIXED SHUNT DATA BEGIN GENERATOR DATA
1740,'1',85.046,9.434,52.66,-31.596,1.04,0,124.16,0.0,1.0,0.0,0.0,1.0,1,100.0,103.47,26.81,1,1.0,0,1.0,0,1.0,0,1.0,0,1.0
1741,'1',85.046,8.938,52.66,-31.596,1.04,0,124.16,0.0,1.0,0.0,0.0,1.0,1,100.0,103.47,50.92,1,1.0,0,1.0,0,1.0,0,1.0,0,1.0
1742,'1',85.046,8.405,52.66,-31.596,1.04,0,124.16,0.0,1.0,0.0,0.0,1.0,1,100.0,103.47,14.34,1,1.0,0,1.0,0,1.0,0,1.0,0,1.0
1743,'1',85.046,10.866,52.66,-31.596,1.04,0,124.16,0.0,1.0,0.0,0.0,1.0,1,100.0,103.47,18.78,1,1.0,0,1.0,0,1.0,0,1.0,0,1.0
1744,'1',85.046,8.308,52.66,-31.596,1.04,0,124.16,0.0,1.0,0.0,0.0,1.0,1,100.0,103.47,43.26,1,1.0,0,1.0,0,1.0,0,1.0,0,1.0
1745,'1',85.046,10.901,52.66,-31.596,1.04,0,124.16,0.0,1.0,0.0,0.0,1.0,1,100.0,103.47,28.95,1,1.0,0,1.0,0,1.0,0,1.0,0,1.0
1747,'1',27.37,-2.303,9.212,-9.212,1.04,0,39.96,0.0,1.0,0.0,0.0,1.0,1,100.0,30.706,0.0,1,1.0,0,1.0,0,1.0,0,1.0,0,1.0
1748,'1',26.688,8.313,8.313,-8.313,1.04,0,39.96,0.0,1.0,0.0,0.0,1.0,1,100.0,27.71,0.0,1,1.0,0,1.0,0,1.0,0,1.0,0,1.0
1748,'2',20.617,6.492,6.492,-6.492,1.04,0,39.96,0.0,1.0,0.0,0.0,1.0,1,100.0,21.639,0.0,1,1.0,0,1.0,0,1.0,0,1.0,0,1.0
1750,'1',18.354,5.771,5.771,-5.771,1.04,0,34.56,0.0,1.0,0.0,0.0,1.0,1,100.0,19.238,0.0,1,1.0,0,1.0,0,1.0,0,1.0,0,1.0
1751,'1',15.649,4.96,4.96,-4.96,1.04,0,34.56,0.0,1.0,0.0,0.0,1.0,1,100.0,16.533,0.0,1,1.0,0,1.0,0,1.0,0,1.0,0,1.0
1757,'1',256.94,-2.539,605.8,-363.48,1.04,1754,1560.0,0.0,1.0,0.0,0.0,1.0,1,100.0,1300.0,256.94,1,1.0,0,1.0,0,1.0,0,1.0,0,1.0
1758,'1',527.04,44.21,605.8,-363.48,1.04,1754,1560.0,0.0,1.0,0.0,0.0,1.0,1,100.0,1300.0,527.04,1,1.0,0,1.0,0,1.0,0,1.0,0,1.0
1761,'1',8.052,2.561,2.561,-2.561,1.04,0,18.96,0.0,1.0,0.0,0.0,1.0,1,100.0,8.536,0.0,1,1.0,0,1.0,0,1.0,0,1.0,0,1.0
1764,'1',21.354,7.272,7.272,-7.272,1.04,0,31.17,0.0,1.0,0.0,0.0,1.0,1,100.0,24.239,0.0,1,1.0,0,1.0,0,1.0,0,1.0,0,1.0
1764,'2',12.193,3.897,3.897,-3.897,1.04,0,31.17,0.0,1.0,0.0,0.0,1.0,1,100.0,12.99,0.0,1,1.0,0,1.0,0,1.0,0,1.0,0,1.0
1764,'3',21.354,7.43,7.43,-7.43,1.04,0,31.17,0.0,1.0,0.0,0.0,1.0,1,100.0,24.768,0.0,1,1.0,0,1.0,0,1.0,0,1.0,0,1.0
1764,'4',19.603,6.12,6.12,-6.12,1.04,0,31.17,0.0,1.0,0.0,0.0,1.0,1,100.0,20.4,0.0,1,1.0,0,1.0,0,1.0,0,1.0,0,1.0
1768,'1',48.969,11.372,67.62,-67.62,1.04,0,42.36,0.0,1.0,0.0,0.0,1.0,1,100.0,225.399,0.0,1,1.0,0,1.0,0,1.0,0,1.0,0,1.0
1768,'2',145.979,11.372,44.119,-44.119,1.04,0,42.36,0.0,1.0,0.0,0.0,1.0,1,100.0,147.062,0.0,1,1.0,0,1.0,0,1.0,0,1.0,0,1.0
1768,'3',28.693,11.372,59.274,-59.274,1.04,0,42.36,0.0,1.0,0.0,0.0,1.0,1,100.0,197.579,0.0,1,1.0,0,1.0,0,1.0,0,1.0,0,1.0
1770,'1',4.11,2.55,2.55,-1.53,1.04,0,6.0,0.0,1.0,0.0,0.0,1.0,1,100.0,5.0,0.52,1,1.0,0,1.0,0,1.0,0,1.0,0,1.0
1774,'1',3.017,1.021,1.71,-1.026,1.04,0,4.4,0.0,1.0,0.0,0.0,1.0,1,100.0,3.67,0.96,1,1.0,0,1.0,0,1.0,0,1.0,0,1.0
1774,'2',3.017,1.021,1.71,-1.026,1.04,0,4.4,0.0,1.0,0.0,0.0,1.0,1,100.0,3.67,1.63,1,1.0,0,1.0,0,1.0,0,1.0,0,1.0
1775,'1',3.017,0.963,1.71,-1.026,1.04,0,4.4,0.0,1.0,0.0,0.0,1.0,1,100.0,3.67,1.42,1,1.0,0,1.0,0,1.0,0,1.0,0,1.0
1775,'2',3.017,0.963,1.71,-1.026,1.04,0,4.4,0.0,1.0,0.0,0.0,1.0,1,100.0,3.67,0.73,1,1.0,0,1.0,0,1.0,0,1.0,0,1.0
1776,'1',3.017,0.695,1.71,-1.026,1.04,0,4.4,0.0,1.0,0.0,0.0,1.0,1,100.0,3.67,0.5,1,1.0,0,1.0,0,1.0,0,1.0,0,1.0
1776,'2',3.017,0.695,1.71,-1.026,1.04,0,4.4,0.0,1.0,0.0,0.0,1.0,1,100.0,3.67,1.21,1,1.0,0,1.0,0,1.0,0,1.0,0,1.0
1780,'1',2.024,0.642,0.642,-0.642,1.04,0,4.56,0.0,1.0,0.0,0.0,1.0,1,100.0,2.141,0.0,1,1.0,0,1.0,0,1.0,0,1.0,0,1.0
1781,'1',1.783,0.276,0.57,-0.57,1.04,0,4.56,0.0,1.0,0.0,0.0,1.0,1,100.0,1.9,0.0,1,1.0,0,1.0,0,1.0,0,1.0,0,1.0
1781,'2',2.985,0.276,0.93,-0.93,1.04,0,4.56,0.0,1.0,0.0,0.0,1.0,1,100.0,3.101,0.0,1,1.0,0,1.0,0,1.0,0,1.0,0,1.0
1782,'1',1.783,0.57,0.57,-0.57,1.04,0,4.56,0.0,1.0,0.0,0.0,1.0,1,100.0,1.9,0.0,1,1.0,0,1.0,0,1.0,0,1.0,0,1.0
1782,'2',2.893,0.903,0.903,-0.903,1.04,0,4.56,0.0,1.0,0.0,0.0,1.0,1,100.0,3.01,0.0,1,1.0,0,1.0,0,1.0,0,1.0,0,1.0
1786,'1',271.239,0.165,153.78,-92.268,1.03,1784,396.0,0.0,1.0,0.0,0.0,1.0,1,100.0,330.0,49.13,1,1.0,0,1.0,0,1.0,0,1.0,0,1.0
1787,'1',271.239,0.165,153.78,-92.268,1.03,1784,396.0,0.0,1.0,0.0,0.0,1.0,1,100.0,330.0,96.28,1,1.0,0,1.0,0,1.0,0,1.0,0,1.0
1788,'1',262.986,0.165,153.78,-92.268,1.03,1784,396.0,0.0,1.0,0.0,0.0,1.0,1,100.0,330.0,91.44,1,1.0,0,1.0,0,1.0,0,1.0,0,1.0
1790,'1',13.939,4.455,4.455,-4.455,1.04,0,35.64,0.0,1.0,0.0,0.0,1.0,1,100.0,14.85,0.0,1,1.0,0,1.0,0,1.0,0,1.0,0,1.0
1790,'2',13.939,4.455,4.455,-4.455,1.04,0,35.64,0.0,1.0,0.0,0.0,1.0,1,100.0,14.85,0.0,1,1.0,0,1.0,0,1.0,0,1.0,0,1.0
1793,'1',58.479,7.18,56.26,-33.756,1.04,0,132.64,0.0,1.0,0.0,0.0,1.0,1,100.0,110.53,45.79,1,1.0,0,1.0,0,1.0,0,1.0,0,1.0
1794,'1',90.849,7.147,56.26,-33.756,1.04,0,132.64,0.0,1.0,0.0,0.0,1.0,1,100.0,110.53,47.9,1,1.0,0,1.0,0,1.0,0,1.0,0,1.0
1795,'1',52.257,8.84,56.26,-33.756,1.04,0,132.64,0.0,1.0,0.0,0.0,1.0,1,100.0,110.53,14.2,1,1.0,0,1.0,0,1.0,0,1.0,0,1.0
1796,'1',69.499,5.547,56.26,-33.756,1.04,0,132.64,0.0,1.0,0.0,0.0,1.0,1,100.0,110.53,25.13,1,1.0,0,1.0,0,1.0,0,1.0,0,1.0
1797,'1',90.849,6.685,56.26,-33.756,1.04,0,132.64,0.0,1.0,0.0,0.0,1.0,1,100.0,110.53,33.77,1,1.0,0,1.0,0,1.0,0,1.0,0,1.0
1798,'1',90.849,10.259,56.26,-33.756,1.04,0,132.64,0.0,1.0,0.0,0.0,1.0,1,100.0,110.53,27.65,1,1.0,0,1.0,0,1.0,0,1.0,0,1.0
1804,'1',54.001,10.236,19.71,-19.71,1.04,0,78.84,0.0,1.0,0.0,0.0,1.0,1,100.0,65.7,0.0,1,1.0,0,1.0,0,1.0,0,1.0,0,1.0
1805,'1',36.646,5.133,11.598,-11.598,1.04,0,78.84,0.0,1.0,0.0,0.0,1.0,1,100.0,38.661,0.0,1,1.0,0,1.0,0,1.0,0,1.0,0,1.0
1809,'1',94.523,-3.494,58.53,-35.118,1.04,0,138.0,0.0,1.0,0.0,0.0,1.0,1,100.0,115.0,25.26,1,1.0,0,1.0,0,1.0,0,1.0,0,1.0
1810,'1',94.523,-2.421,58.53,-35.118,1.04,0,138.0,0.0,1.0,0.0,0.0,1.0,1,100.0,115.0,54.87,1,1.0,0,1.0,0,1.0,0,1.0,0,1.0
1811,'1',94.523,1.322,58.53,-40.971,1.041,1806,138.0,0.0,1.0,0.0,0.0,1.0,1,100.0,115.0,27.73,1,1.0,0,1.0,0,1.0,0,1.0,0,1.0
1812,'1',94.523,-2.205,58.53,-35.118,1.04,0,138.0,0.0,1.0,0.0,0.0,1.0,1,100.0,115.0,31.11,1,1.0,0,1.0,0,1.0,0,1.0,0,1.0
1818,'1',564.122,57.988,467.32,-280.392,1.04,1814,1523.88,0.0,1.0,0.0,0.0,1.0,1,100.0,1269.9,409.47,1,1.0,0,1.0,0,1.0,0,1.0,0,1.0
1820,'1',26.608,4.603,8.463,-8.463,1.04,0,62.64,0.0,1.0,0.0,0.0,1.0,1,100.0,28.209,0.0,1,1.0,0,1.0,0,1.0,0,1.0,0,1.0
1820,'2',42.905,4.603,13.761,-13.761,1.04,0,62.64,0.0,1.0,0.0,0.0,1.0,1,100.0,45.87,0.0,1,1.0,0,1.0,0,1.0,0,1.0,0,1.0
1820,'3',42.905,4.603,15.596,-15.596,1.04,0,62.64,0.0,1.0,0.0,0.0,1.0,1,100.0,51.985,0.0,1,1.0,0,1.0,0,1.0,0,1.0,0,1.0
1824,'1',20.856,6.505,6.505,-6.505,1.04,0,32.4,0.0,1.0,0.0,0.0,1.0,1,100.0,21.684,0.0,1,1.0,0,1.0,0,1.0,0,1.0,1,1.0
1826,'1',13.85,4.343,4.343,-4.343,1.04,0,20.22,0.0,1.0,0.0,0.0,1.0,1,100.0,14.477,0.0,1,1.0,0,1.0,0,1.0,0,1.0,0,1.0
1826,'2',8.124,2.592,2.592,-2.592,1.04,0,20.22,0.0,1.0,0.0,0.0,1.0,1,100.0,8.641,0.0,1,1.0,0,1.0,0,1.0,0,1.0,0,1.0
1829,'1',22.515,7.076,7.076,-7.076,1.04,0,41.904,0.0,1.0,0.0,0.0,1.0,1,100.0,23.586,0.0,1,1.0,0,1.0,0,1.0,0,1.0,0,1.0
1829,'2',23.263,7.3,7.3,-7.3,1.04,0,41.904,0.0,1.0,0.0,0.0,1.0,1,100.0,24.334,0.0,1,1.0,0,1.0,0,1.0,0,1.0,0,1.0
1830,'1',28.702,-0.623,9.516,-9.516,1.04,0,41.904,0.0,1.0,0.0,0.0,1.0,1,100.0,31.721,0.0,1,1.0,0,1.0,0,1.0,0,1.0,0,1.0
1830,'2',28.702,-0.623,10.476,-10.476,1.04,0,41.904,0.0,1.0,0.0,0.0,1.0,1,100.0,34.92,0.0,1,1.0,0,1.0,0,1.0,0,1.0,0,1.0
1830,'3',28.702,-0.623,9.043,-9.043,1.04,0,41.904,0.0,1.0,0.0,0.0,1.0,1,100.0,30.145,0.0,1,1.0,0,1.0,0,1.0,0,1.0,0,1.0
1832,'1',21.602,6.687,6.827,-6.827,1.04,0,45.24,0.0,1.0,0.0,0.0,1.0,1,100.0,22.758,0.0,1,1.0,0,1.0,0,1.0,0,1.0,0,1.0
1832,'2',30.801,6.687,9.587,-9.587,1.04,0,45.24,0.0,1.0,0.0,0.0,1.0,1,100.0,31.957,0.0,1,1.0,0,1.0,0,1.0,0,1.0,0,1.0
1832,'3',27.072,6.687,8.469,-8.469,1.04,0,45.24,0.0,1.0,0.0,0.0,1.0,1,100.0,28.229,0.0,1,1.0,0,1.0,0,1.0,0,1.0,0,1.0
1832,'4',30.987,6.687,11.246,-11.246,1.04,0,45.24,0.0,1.0,0.0,0.0,1.0,1,100.0,37.487,0.0,1,1.0,0,1.0,0,1.0,0,1.0,0,1.0
1838,'1',167.671,0.442,126.86,-76.116,1.04,0,299.07,0.0,1.0,0.0,0.0,1.0,1,100.0,249.22,100.54,1,1.0,0,1.0,0,1.0,0,1.0,0,1.0
1839,'1',204.841,5.45,126.86,-76.116,1.04,1835,299.07,0.0,1.0,0.0,0.0,1.0,1,100.0,249.22,26.43,1,1.0,0,1.0,0,1.0,0,1.0,0,1.0
1840,'1',204.841,1.827,126.86,-76.116,1.04,0,299.07,0.0,1.0,0.0,0.0,1.0,1,100.0,249.22,109.59,1,1.0,0,1.0,0,1.0,0,1.0,0,1.0
1841,'1',204.841,-0.704,126.86,-76.116,1.04,0,299.07,0.0,1.0,0.0,0.0,1.0,1,100.0,249.22,106.81,1,1.0,0,1.0,0,1.0,0,1.0,0,1.0
1845,'1',155.568,4.294,96.34,-57.804,1.04,0,227.12,0.0,1.0,0.0,0.0,1.0,1,100.0,189.27,24.72,1,1.0,0,1.0,0,1.0,0,1.0,0,1.0
1846,'1',155.568,3.683,96.34,-57.804,1.04,0,227.12,0.0,1.0,0.0,0.0,1.0,1,100.0,189.27,33.63,1,1.0,0,1.0,0,1.0,0,1.0,0,1.0
1847,'1',155.568,4.43,96.34,-57.804,1.04,0,227.12,0.0,1.0,0.0,0.0,1.0,1,100.0,189.27,40.85,1,1.0,0,1.0,0,1.0,0,1.0,0,1.0
1851,'1',195.35,-4.834,120.97,-72.582,1.04,0,285.2,0.0,1.0,0.0,0.0,1.0,1,100.0,237.67,82.61,1,1.0,0,1.0,0,1.0,0,1.0,0,1.0
1852,'1',195.35,3.182,120.97,-72.582,1.041,1850,285.2,0.0,1.0,0.0,0.0,1.0,1,100.0,237.67,85.08,1,1.0,0,1.0,0,1.0,0,1.0,0,1.0
1853,'1',195.35,3.182,120.97,-72.582,1.041,1850,285.2,0.0,1.0,0.0,0.0,1.0,1,100.0,237.67,27.85,1,1.0,0,1.0,0,1.0,0,1.0,0,1.0
1854,'1',195.35,3.182,120.97,-72.582,1.041,1850,285.2,0.0,1.0,0.0,0.0,1.0,1,100.0,237.67,109.63,1,1.0,0,1.0,0,1.0,0,1.0,0,1.0
1855,'1',195.35,-2.327,120.97,-72.582,1.04,0,285.2,0.0,1.0,0.0,0.0,1.0,1,100.0,237.67,83.36,1,1.0,0,1.0,0,1.0,0,1.0,0,1.0
1856,'1',195.35,3.182,120.97,-72.582,1.041,1850,285.2,0.0,1.0,0.0,0.0,1.0,1,100.0,237.67,55.32,1,1.0,0,1.0,0,1.0,0,1.0,0,1.0
1858,'1',14.795,2.689,9.16,-5.496,1.04,0,21.6,0.0,1.0,0.0,0.0,1.0,1,100.0,18.0,8.14,1,1.0,0,1.0,0,1.0,0,1.0,0,1.0
1864,'1',139.836,12.933,86.6,-60.62,1.04,1861,204.16,0.0,1.0,0.0,0.0,1.0,1,100.0,170.13,75.2,1,1.0,0,1.0,0,1.0,0,1.0,0,1.0
1865,'1',139.836,12.933,86.6,-60.62,1.04,1861,204.16,0.0,1.0,0.0,0.0,1.0,1,100.0,170.13,24.19,1,1.0,0,1.0,0,1.0,0,1.0,0,1.0
1866,'1',139.836,1.024,86.6,-51.96,1.04,0,204.16,0.0,1.0,0.0,0.0,1.0,1,100.0,170.13,78.63,1,1.0,0,1.0,0,1.0,0,1.0,0,1.0
1867,'1',139.836,12.933,86.6,-60.62,1.04,1861,204.16,0.0,1.0,0.0,0.0,1.0,1,100.0,170.13,56.6,1,1.0,0,1.0,0,1.0,0,1.0,0,1.0
1868,'1',139.836,12.933,86.6,-51.96,1.04,1861,204.16,0.0,1.0,0.0,0.0,1.0,1,100.0,170.13,43.7,1,1.0,0,1.0,0,1.0,0,1.0,0,1.0
1869,'1',139.836,-0.568,86.6,-51.96,1.04,0,204.16,0.0,1.0,0.0,0.0,1.0,1,100.0,170.13,65.0,1,1.0,0,1.0,0,1.0,0,1.0,0,1.0
1871,'1',9.452,-0.134,3.244,-3.244,1.04,0,13.8,0.0,1.0,0.0,0.0,1.0,1,100.0,10.813,0.0,1,1.0,0,1.0,0,1.0,0,1.0,0,1.0
1871,'2',7.336,-0.134,2.307,-2.307,1.04,0,13.8,0.0,1.0,0.0,0.0,1.0,1,100.0,7.689,0.0,1,1.0,0,1.0,0,1.0,0,1.0,0,1.0
1873,'1',13.644,4.98,4.98,-4.98,1.04,0,19.92,0.0,1.0,0.0,0.0,1.0,1,100.0,16.6,0.0,1,1.0,0,1.0,0,1.0,0,1.0,0,1.0
1873,'2',9.328,2.951,2.951,-2.951,1.04,0,19.92,0.0,1.0,0.0,0.0,1.0,1,100.0,9.838,0.0,1,1.0,0,1.0,0,1.0,0,1.0,0,1.0
1874,'1',8.336,2.654,2.654,-2.654,1.04,0,19.92,0.0,1.0,0.0,0.0,1.0,1,100.0,8.846,0.0,1,1.0,0,1.0,0,1.0,0,1.0,0,1.0
1876,'1',23.672,8.64,8.64,-8.64,1.04,0,34.56,0.0,1.0,0.0,0.0,1.0,1,100.0,28.8,0.0,1,1.0,0,1.0,0,1.0,0,1.0,0,1.0
1880,'1',9.353,2.314,2.844,-2.844,1.04,0,5.04,0.0,1.0,0.0,0.0,1.0,1,100.0,9.481,0.0,1,1.0,0,1.0,0,1.0,0,1.0,0,1.0
1885,'1',352.118,25.839,111.216,-111.216,1.038,1882,514.08,0.0,1.0,0.0,0.0,1.0,1,100.0,370.72,0.0,1,1.0,0,1.0,0,1.0,0,1.0,0,1.0
1886,'1',352.118,25.839,114.299,-114.299,1.038,1882,514.08,0.0,1.0,0.0,0.0,1.0,1,100.0,380.997,0.0,1,1.0,0,1.0,0,1.0,0,1.0,0,1.0
1887,'1',352.118,25.839,119.559,-119.559,1.038,1882,514.08,0.0,1.0,0.0,0.0,1.0,1,100.0,398.529,0.0,1,1.0,0,1.0,0,1.0,0,1.0,0,1.0
1888,'1',352.118,25.839,125.122,-125.122,1.038,1882,514.08,0.0,1.0,0.0,0.0,1.0,1,100.0,417.073,0.0,1,1.0,0,1.0,0,1.0,0,1.0,0,1.0
1890,'1',22.757,7.241,7.241,-7.241,1.04,0,54.0,0.0,1.0,0.0,0.0,1.0,1,100.0,24.138,0.0,1,1.0,0,1.0,0,1.0,0,1.0,0,1.0
1891,'1',32.536,10.175,10.175,-10.175,1.04,0,54.0,0.0,1.0,0.0,0.0,1.0,1,100.0,33.916,0.0,1,1.0,0,1.0,0,1.0,0,1.0,0,1.0
1891,'2',36.987,12.147,12.147,-12.147,1.04,0,54.0,0.0,1.0,0.0,0.0,1.0,1,100.0,40.49,0.0,1,1.0,0,1.0,0,1.0,0,1.0,0,1.0
1893,'1',11.47,3.529,3.529,-3.529,1.04,0,11.52,0.0,1.0,0.0,0.0,1.0,1,100.0,11.764,0.0,1,1.0,0,1.0,0,1.0,0,1.0,0,1.0
1898,'1',154.349,28.705,146.23,-87.738,1.04,1895,376.56,0.0,1.0,0.0,0.0,1.0,1,100.0,313.8,106.65,1,1.0,0,1.0,0,1.0,0,1.0,0,1.0
1899,'1',179.269,28.705,146.23,-87.738,1.04,1895,376.56,0.0,1.0,0.0,0.0,1.0,1,100.0,313.8,156.49,1,1.0,0,1.0,0,1.0,0,1.0,0,1.0
1900,'1',164.584,28.705,146.23,-87.738,1.04,1895,376.56,0.0,1.0,0.0,0.0,1.0,1,100.0,313.8,127.12,1,1.0,0,1.0,0,1.0,0,1.0,0,1.0
1901,'1',143.384,28.705,146.23,-87.738,1.04,1895,376.56,0.0,1.0,0.0,0.0,1.0,1,100.0,313.8,84.72,1,1.0,0,1.0,0,1.0,0,1.0,0,1.0
1904,'1',14.795,5.217,5.217,-5.217,1.04,0,21.6,0.0,1.0,0.0,0.0,1.0,1,100.0,17.389,0.0,1,1.0,0,1.0,0,1.0,0,1.0,0,1.0
1904,'2',12.553,3.932,3.932,-3.932,1.04,0,21.6,0.0,1.0,0.0,0.0,1.0,1,100.0,13.105,0.0,1,1.0,0,1.0,0,1.0,0,1.0,0,1.0
1904,'3',11.212,3.529,3.529,-3.529,1.04,0,21.6,0.0,1.0,0.0,0.0,1.0,1,100.0,11.765,0.0,1,1.0,0,1.0,0,1.0,0,1.0,0,1.0
1906,'1',9.863,3.523,3.523,-3.523,1.04,0,14.4,0.0,1.0,0.0,0.0,1.0,1,100.0,11.745,0.0,1,1.0,0,1.0,0,1.0,0,1.0,0,1.0
1907,'1',5.846,1.864,1.864,-1.864,1.04,0,14.4,0.0,1.0,0.0,0.0,1.0,1,100.0,6.214,0.0,1,1.0,0,1.0,0,1.0,0,1.0,0,1.0
1907,'2',9.863,3.331,3.331,-3.331,1.04,0,14.4,0.0,1.0,0.0,0.0,1.0,1,100.0,11.105,0.0,1,1.0,0,1.0,0,1.0,0,1.0,0,1.0
1910,'1',20.594,6.509,6.509,-6.509,1.04,0,43.2,0.0,1.0,0.0,0.0,1.0,1,100.0,21.698,0.0,1,1.0,0,1.0,0,1.0,0,1.0,0,1.0
1910,'2',28.44,8.863,8.863,-8.863,1.04,0,43.2,0.0,1.0,0.0,0.0,1.0,1,100.0,29.545,0.0,1,1.0,0,1.0,0,1.0,0,1.0,0,1.0
1913,'1',3.699,0.545,2.29,-1.374,1.04,0,5.4,0.0,1.0,0.0,0.0,1.0,1,100.0,4.5,1.94,1,1.0,0,1.0,0,1.0,0,1.0,0,1.0
1916,'1',22.921,2.704,7.244,-7.244,1.04,0,48.0,0.0,1.0,0.0,0.0,1.0,1,100.0,24.148,0.0,1,1.0,0,1.0,0,1.0,0,1.0,0,1.0
1916,'2',28.937,2.704,9.049,-9.049,1.04,0,48.0,0.0,1.0,0.0,0.0,1.0,1,100.0,30.164,0.0,1,1.0,0,1.0,0,1.0,0,1.0,0,1.0
1916,'3',18.773,2.704,6.0,-6.0,1.04,0,48.0,0.0,1.0,0.0,0.0,1.0,1,100.0,20.0,0.0,1,1.0,0,1.0,0,1.0,0,1.0,0,1.0
1916,'4',32.877,2.704,11.199,-11.199,1.04,0,48.0,0.0,1.0,0.0,0.0,1.0,1,100.0,37.332,0.0,1,1.0,0,1.0,0,1.0,0,1.0,0,1.0
1916,'5',18.773,2.704,6.0,-6.0,1.04,0,48.0,0.0,1.0,0.0,0.0,1.0,1,100.0,20.0,0.0,1,1.0,0,1.0,0,1.0,0,1.0,0,1.0
1916,'6',28.128,2.704,8.806,-8.806,1.04,0,48.0,0.0,1.0,0.0,0.0,1.0,1,100.0,29.355,0.0,1,1.0,0,1.0,0,1.0,0,1.0,0,1.0
1922,'1',320.52,-129.469,442.7,-265.62,1.031,1919,1140.0,0.0,1.0,0.0,0.0,1.0,1,100.0,950.0,320.52,1,1.0,0,1.0,0,1.0,0,1.0,0,1.0
1927,'1',31.495,3.329,10.854,-10.854,1.04,0,45.99,0.0,1.0,0.0,0.0,1.0,1,100.0,36.181,0.0,1,1.0,0,1.0,0,1.0,0,1.0,0,1.0
1927,'2',17.984,3.329,5.748,-5.748,1.04,0,45.99,0.0,1.0,0.0,0.0,1.0,1,100.0,19.16,0.0,1,1.0,0,1.0,0,1.0,0,1.0,0,1.0
1928,'1',31.495,5.687,10.415,-10.415,1.04,0,45.99,0.0,1.0,0.0,0.0,1.0,1,100.0,34.718,0.0,1,1.0,0,1.0,0,1.0,0,1.0,0,1.0
1929,'1',31.495,4.919,10.485,-10.485,1.04,0,45.99,0.0,1.0,0.0,0.0,1.0,1,100.0,34.951,0.0,1,1.0,0,1.0,0,1.0,0,1.0,0,1.0
1931,'1',2.178,0.725,0.725,-0.725,1.04,0,3.18,0.0,1.0,0.0,0.0,1.0,1,100.0,2.416,0.0,1,1.0,0,1.0,0,1.0,0,1.0,0,1.0
1931,'2',1.519,0.48,0.48,-0.48,1.04,0,3.18,0.0,1.0,0.0,0.0,1.0,1,100.0,1.6,0.0,1,1.0,0,1.0,0,1.0,0,1.0,0,1.0
1932,'1',2.014,0.629,0.629,-0.629,1.04,0,3.18,0.0,1.0,0.0,0.0,1.0,1,100.0,2.096,0.0,1,1.0,0,1.0,0,1.0,0,1.0,0,1.0
1932,'2',1.779,0.558,0.558,-0.558,1.04,0,3.18,0.0,1.0,0.0,0.0,1.0,1,100.0,1.86,0.0,1,1.0,0,1.0,0,1.0,0,1.0,0,1.0
1937,'1',1003.173,79.111,449.14,-269.484,1.036,1934,1464.6,0.0,1.0,0.0,0.0,1.0,1,100.0,1220.5,473.43,1,1.0,0,1.0,0,1.0,0,1.0,0,1.0
1938,'1',1003.173,79.111,449.14,-269.484,1.036,1934,1464.6,0.0,1.0,0.0,0.0,1.0,1,100.0,1220.5,379.66,1,1.0,0,1.0,0,1.0,0,1.0,0,1.0
1940,'1',18.781,6.416,6.416,-6.416,1.04,0,27.42,0.0,1.0,0.0,0.0,1.0,1,100.0,21.388,0.0,1,1.0,0,1.0,0,1.0,0,1.0,0,1.0
1941,'1',14.482,4.555,4.555,-4.555,1.04,0,27.42,0.0,1.0,0.0,0.0,1.0,1,100.0,15.183,0.0,1,1.0,0,1.0,0,1.0,0,1.0,0,1.0
1943,'1',1.479,0.84,0.84,-0.504,1.04,0,2.16,0.0,1.0,0.0,0.0,1.0,1,100.0,1.8,0.26,1,1.0,0,1.0,0,1.0,0,1.0,0,1.0
1943,'2',1.479,0.84,0.84,-0.504,1.04,0,2.16,0.0,1.0,0.0,0.0,1.0,1,100.0,1.8,0.87,1,1.0,0,1.0,0,1.0,0,1.0,0,1.0
1946,'1',0.493,0.13,0.162,-0.162,1.04,0,0.72,0.0,1.0,0.0,0.0,1.0,1,100.0,0.54,0.0,1,1.0,0,1.0,0,1.0,0,1.0,1,1.0
1946,'2',0.314,0.13,0.1,-0.1,1.04,0,0.72,0.0,1.0,0.0,0.0,1.0,1,100.0,0.333,0.0,1,1.0,0,1.0,0,1.0,0,1.0,1,1.0
1947,'1',0.493,0.179,0.179,-0.179,1.04,0,0.72,0.0,1.0,0.0,0.0,1.0,1,100.0,0.596,0.0,1,1.0,0,1.0,0,1.0,0,1.0,1,1.0
1952,'1',48.634,14.489,132.03,-79.218,1.037,1949,340.0,0.0,1.0,0.0,0.0,1.0,1,100.0,283.33,37.67,1,1.0,0,1.0,0,1.0,0,1.0,0,1.0
1953,'1',33.18,14.489,132.03,-79.218,1.037,1949,340.0,0.0,1.0,0.0,0.0,1.0,1,100.0,283.33,33.18,1,1.0,0,1.0,0,1.0,0,1.0,0,1.0
1954,'1',75.56,14.489,132.03,-79.218,1.037,1949,340.0,0.0,1.0,0.0,0.0,1.0,1,100.0,283.33,75.56,1,1.0,0,1.0,0,1.0,0,1.0,0,1.0
1955,'1',81.83,14.489,132.03,-79.218,1.037,1949,340.0,0.0,1.0,0.0,0.0,1.0,1,100.0,283.33,81.83,1,1.0,0,1.0,0,1.0,0,1.0,0,1.0
1956,'1',89.23,14.489,132.03,-79.218,1.037,1949,340.0,0.0,1.0,0.0,0.0,1.0,1,100.0,283.33,89.23,1,1.0,0,1.0,0,1.0,0,1.0,0,1.0
1957,'1',46.362,14.489,132.03,-79.218,1.037,1949,340.0,0.0,1.0,0.0,0.0,1.0,1,100.0,283.33,34.64,1,1.0,0,1.0,0,1.0,0,1.0,0,1.0
1960,'1',4.11,2.55,2.55,-1.53,1.04,0,6.0,0.0,1.0,0.0,0.0,1.0,1,100.0,5.0,2.02,1,1.0,0,1.0,0,1.0,0,1.0,0,1.0
1964,'1',27.74,1.155,9.146,-9.146,1.04,0,40.5,0.0,1.0,0.0,0.0,1.0,1,100.0,30.487,0.0,1,1.0,0,1.0,0,1.0,0,1.0,0,1.0
1964,'2',15.84,1.155,5.063,-5.063,1.04,0,40.5,0.0,1.0,0.0,0.0,1.0,1,100.0,16.875,0.0,1,1.0,0,1.0,0,1.0,0,1.0,0,1.0
1965,'1',20.738,1.354,6.532,-6.532,1.04,0,40.5,0.0,1.0,0.0,0.0,1.0,1,100.0,21.774,0.0,1,1.0,0,1.0,0,1.0,0,1.0,0,1.0
1965,'2',27.74,1.354,10.125,-10.125,1.04,0,40.5,0.0,1.0,0.0,0.0,1.0,1,100.0,33.75,0.0,1,1.0,0,1.0,0,1.0,0,1.0,0,1.0
1967,'1',4.274,2.65,2.65,-1.59,1.04,0,6.24,0.0,1.0,0.0,0.0,1.0,1,100.0,5.2,0.68,1,1.0,0,1.0,0,1.0,0,1.0,0,1.0
1967,'2',4.274,2.65,2.65,-1.59,1.04,0,6.24,0.0,1.0,0.0,0.0,1.0,1,100.0,5.2,1.39,1,1.0,0,1.0,0,1.0,0,1.0,0,1.0
1970,'1',2.63,1.63,1.63,-0.978,1.04,0,3.84,0.0,1.0,0.0,0.0,1.0,1,100.0,3.2,0.58,1,1.0,0,1.0,0,1.0,0,1.0,0,1.0
1972,'1',3.017,1.359,1.71,-1.026,1.04,0,4.4,0.0,1.0,0.0,0.0,1.0,1,100.0,3.67,1.46,1,1.0,0,1.0,0,1.0,0,1.0,0,1.0
1972,'2',3.017,1.359,1.71,-1.026,1.04,0,4.4,0.0,1.0,0.0,0.0,1.0,1,100.0,3.67,1.08,1,1.0,0,1.0,0,1.0,0,1.0,0,1.0
1973,'1',3.017,1.224,1.71,-1.026,1.04,0,4.4,0.0,1.0,0.0,0.0,1.0,1,100.0,3.67,1.15,1,1.0,0,1.0,0,1.0,0,1.0,0,1.0
1973,'2',3.017,1.224,1.71,-1.026,1.04,0,4.4,0.0,1.0,0.0,0.0,1.0,1,100.0,3.67,0.83,1,1.0,0,1.0,0,1.0,0,1.0,0,1.0
1974,'1',3.017,0.801,1.71,-1.026,1.04,0,4.4,0.0,1.0,0.0,0.0,1.0,1,100.0,3.67,0.9,1,1.0,0,1.0,0,1.0,0,1.0,0,1.0
1974,'2',3.017,0.801,1.71,-1.026,1.04,0,4.4,0.0,1.0,0.0,0.0,1.0,1,100.0,3.67,1.76,1,1.0,0,1.0,0,1.0,0,1.0,0,1.0
1977,'1',31.645,6.818,11.55,-11.55,1.04,0,46.2,0.0,1.0,0.0,0.0,1.0,1,100.0,38.5,0.0,1,1.0,0,1.0,0,1.0,0,1.0,0,1.0
1979,'1',20.548,11.65,11.65,-6.99,1.04,0,30.0,0.0,1.0,0.0,0.0,1.0,1,100.0,25.0,7.45,1,1.0,0,1.0,0,1.0,0,1.0,0,1.0
1981,'1',165.596,-12.234,102.55,-61.53,1.042,1980,241.76,0.0,1.0,0.0,0.0,1.0,1,100.0,201.47,97.56,1,1.0,0,1.0,0,1.0,0,1.0,0,1.0
1982,'1',131.365,-12.234,102.55,-61.53,1.042,1980,241.76,0.0,1.0,0.0,0.0,1.0,1,100.0,201.47,53.38,1,1.0,0,1.0,0,1.0,0,1.0,0,1.0
1983,'1',107.146,-5.48,102.55,-61.53,1.04,0,241.76,0.0,1.0,0.0,0.0,1.0,1,100.0,201.47,84.57,1,1.0,0,1.0,0,1.0,0,1.0,0,1.0
1985,'1',23.014,7.339,7.339,-7.339,1.04,0,33.6,0.0,1.0,0.0,0.0,1.0,1,100.0,24.463,0.0,1,1.0,0,1.0,0,1.0,0,1.0,0,1.0
1987,'1',9.505,2.861,2.861,-2.861,1.04,0,1.26,0.0,1.0,0.0,0.0,1.0,1,100.0,9.537,0.0,1,1.0,0,1.0,0,1.0,0,1.0,0,1.0
1987,'2',8.533,2.569,2.569,-2.569,1.04,0,1.26,0.0,1.0,0.0,0.0,1.0,1,100.0,8.565,0.0,1,1.0,0,1.0,0,1.0,0,1.0,0,1.0
1993,'1',15.288,1.968,4.825,-4.825,1.04,0,31.11,0.0,1.0,0.0,0.0,1.0,1,100.0,16.083,0.0,1,1.0,0,1.0,0,1.0,0,1.0,0,1.0
1993,'2',18.745,1.968,5.862,-5.862,1.04,0,31.11,0.0,1.0,0.0,0.0,1.0,1,100.0,19.54,0.0,1,1.0,0,1.0,0,1.0,0,1.0,0,1.0
1994,'1',21.305,5.109,7.596,-7.596,1.04,0,31.11,0.0,1.0,0.0,0.0,1.0,1,100.0,25.319,0.0,1,1.0,0,1.0,0,1.0,0,1.0,0,1.0
1994,'2',13.686,4.344,4.344,-4.344,1.04,0,31.11,0.0,1.0,0.0,0.0,1.0,1,100.0,14.481,0.0,1,1.0,0,1.0,0,1.0,0,1.0,0,1.0
1996,'1',24.148,-2.875,13.69,-8.214,1.04,1995,100.0,0.0,1.0,0.0,0.0,1.0,1,100.0,29.38,6.11,1,1.0,0,1.0,0,1.0,0,1.0,0,1.0
1997,'1',24.148,13.69,13.69,-8.214,1.04,0,35.26,0.0,1.0,0.0,0.0,1.0,1,100.0,29.38,3.15,1,1.0,0,1.0,0,1.0,0,1.0,0,1.0
1997,'2',24.148,13.69,13.69,-8.214,1.04,0,35.26,0.0,1.0,0.0,0.0,1.0,1,100.0,29.38,5.59,1,1.0,0,1.0,0,1.0,0,1.0,0,1.0
1997,'3',24.148,13.69,13.69,-8.214,1.04,0,35.26,0.0,1.0,0.0,0.0,1.0,1,100.0,29.38,13.28,1,1.0,0,1.0,0,1.0,0,1.0,0,1.0
1999,'1',24.148,-0.059,13.69,-8.214,1.04,0,35.26,0.0,1.0,0.0,0.0,1.0,1,100.0,29.38,5.04,1,1.0,0,1.0,0,1.0,0,1.0,0,1.0
1999,'2',24.148,-0.059,13.69,-8.214,1.04,0,35.26,0.0,1.0,0.0,0.0,1.0,1,100.0,29.38,4.0,1,1.0,0,1.0,0,1.0,0,1.0,0,1.0
2001,'1',1.644,0.93,0.93,-0.558,1.04,0,2.4,0.0,1.0,0.0,0.0,1.0,1,100.0,2.0,0.95,1,1.0,0,1.0,0,1.0,0,1.0,0,1.0
2001,'2',1.644,0.93,0.93,-0.558,1.04,0,2.4,0.0,1.0,0.0,0.0,1.0,1,100.0,2.0,0.36,1,1.0,0,1.0,0,1.0,0,1.0,0,1.0
2001,'3',1.644,0.93,0.93,-0.558,1.04,0,2.4,0.0,1.0,0.0,0.0,1.0,1,100.0,2.0,0.59,1,1.0,0,1.0,0,1.0,0,1.0,0,1.0
2001,'4',1.644,0.93,0.93,-0.558,1.04,0,2.4,0.0,1.0,0.0,0.0,1.0,1,100.0,2.0,0.48,1,1.0,0,1.0,0,1.0,0,1.0,0,1.0
2001,'5',1.644,0.93,0.93,-0.558,1.04,0,2.4,0.0,1.0,0.0,0.0,1.0,1,100.0,2.0,0.66,1,1.0,0,1.0,0,1.0,0,1.0,0,1.0
2003,'1',11.606,0.572,3.627,-3.627,1.04,0,18.96,0.0,1.0,0.0,0.0,1.0,1,100.0,12.091,0.0,1,1.0,0,1.0,0,1.0,0,1.0,0,1.0
2005,'1',32.541,-0.325,10.193,-10.193,1.04,0,56.16,0.0,1.0,0.0,0.0,1.0,1,100.0,33.976,0.0,1,1.0,0,1.0,0,1.0,0,1.0,0,1.0
2006,'1',21.964,-3.011,7.02,-7.02,1.04,0,56.16,0.0,1.0,0.0,0.0,1.0,1,100.0,23.4,0.0,1,1.0,0,1.0,0,1.0,0,1.0,0,1.0
2009,'1',26.48,8.311,8.311,-8.311,1.04,0,47.88,0.0,1.0,0.0,0.0,1.0,1,100.0,27.704,0.0,1,1.0,0,1.0,0,1.0,0,1.0,0,1.0
2010,'1',13.699,7.453,7.453,-7.453,1.04,0,47.88,0.0,1.0,0.0,0.0,1.0,1,100.0,24.844,0.0,1,1.0,0,1.0,0,1.0,0,1.0,0,1.0
2010,'2',28.319,8.863,8.863,-8.863,1.04,0,47.88,0.0,1.0,0.0,0.0,1.0,1,100.0,29.543,0.0,1,1.0,0,1.0,0,1.0,0,1.0,0,1.0
2010,'3',19.698,6.277,6.277,-6.277,1.04,0,47.88,0.0,1.0,0.0,0.0,1.0,1,100.0,20.922,0.0,1,1.0,0,1.0,0,1.0,0,1.0,0,1.0
2014,'1',115.832,16.033,115.35,-69.21,1.04,2011,297.04,0.0,1.0,0.0,0.0,1.0,1,100.0,247.53,103.69,1,1.0,0,1.0,0,1.0,0,1.0,0,1.0
2015,'1',148.486,0.334,115.35,-69.21,1.04,0,297.04,0.0,1.0,0.0,0.0,1.0,1,100.0,247.53,27.66,1,1.0,0,1.0,0,1.0,0,1.0,0,1.0
2016,'1',203.454,16.033,115.35,-69.21,1.04,2011,297.04,0.0,1.0,0.0,0.0,1.0,1,100.0,247.53,112.93,1,1.0,0,1.0,0,1.0,0,1.0,0,1.0
2017,'1',203.454,16.033,115.35,-69.21,1.04,2011,297.04,0.0,1.0,0.0,0.0,1.0,1,100.0,247.53,48.25,1,1.0,0,1.0,0,1.0,0,1.0,0,1.0
2018,'1',106.084,16.033,115.35,-69.21,1.04,2011,297.04,0.0,1.0,0.0,0.0,1.0,1,100.0,247.53,52.79,1,1.0,0,1.0,0,1.0,0,1.0,0,1.0
2019,'1',111.974,16.033,115.35,-69.21,1.04,2011,297.04,0.0,1.0,0.0,0.0,1.0,1,100.0,247.53,64.57,1,1.0,0,1.0,0,1.0,0,1.0,0,1.0
0 / END OF GENERATOR DATA BEGIN BRANCH DATA
1,95,'1',0.04327,0.10271,0.00256,71.7,71.7,71.7,0.0,0.0,0.0,0.0,1,1,10.87,1,1.0,0,1.0,0,1.0,0,1.0
2,1,'1',0.03074,0.08122,0.00134,69.3,69.3,69.3,0.0,0.0,0.0,0.0,1,1,7.35,1,1.0,0,1.0,0,1.0,0,1.0
3,53,'1',0.02438,0.05724,0.00059,44.8,44.8,44.8,0.0,0.0,0.0,0.0,1,1,4.52,1,1.0,0,1.0,0,1.0,0,1.0
3,67,'1',0.05612,0.17261,0.00395,47.7,47.7,47.7,0.0,0.0,0.0,0.0,1,1,14.89,1,1.0,0,1.0,0,1.0,0,1.0
4,5,'1',0.0003,0.00107,0.0,82.8,82.8,82.8,0.0,0.0,0.0,0.0,1,1,0.0,1,1.0,0,1.0,0,1.0,0,1.0
4,191,'1',0.01607,0.04144,0.01127,54.8,54.8,54.8,0.0,0.0,0.0,0.0,1,1,11.98,1,1.0,0,1.0,0,1.0,0,1.0
4,192,'1',0.05254,0.16625,0.00469,33.0,33.0,33.0,0.0,0.0,0.0,0.0,1,1,15.2,1,1.0,0,1.0,0,1.0,0,1.0
4,201,'1',0.13401,0.31389,0.00527,58.2,58.2,58.2,0.0,0.0,0.0,0.0,1,1,22.58,1,1.0,0,1.0,0,1.0,0,1.0
4,207,'1',0.10204,0.20536,0.00623,45.0,45.0,45.0,0.0,0.0,0.0,0.0,1,1,19.52,1,1.0,0,1.0,0,1.0,0,1.0
4,210,'1',0.05588,0.09338,0.00812,39.0,39.0,39.0,0.0,0.0,0.0,0.0,1,1,14.38,1,1.0,0,1.0,0,1.0,0,1.0
4,276,'1',0.10507,0.22654,0.00602,62.8,62.8,62.8,0.0,0.0,0.0,0.0,1,1,20.02,1,1.0,0,1.0,0,1.0,0,1.0
4,354,'1',0.03809,0.09277,0.00129,54.6,54.6,54.6,0.0,0.0,0.0,0.0,1,1,7.98,1,1.0,0,1.0,0,1.0,0,1.0
6,4,'1',0.02589,0.06365,0.00135,66.2,66.2,66.2,0.0,0.0,0.0,0.0,1,1,5.75,1,1.0,0,1.0,0,1.0,0,1.0
6,124,'1',0.03242,0.09724,0.00154,62.3,62.3,62.3,0.0,0.0,0.0,0.0,1,1,7.29,1,1.0,0,1.0,0,1.0,0,1.0
6,191,'1',0.04859,0.10302,0.0091,58.3,58.3,58.3,0.0,0.0,0.0,0.0,1,1,17.08,1,1.0,0,1.0,0,1.0,0,1.0
7,9,'1',0.00021,0.00114,0.0,414.0,414.0,414.0,0.0,0.0,0.0,0.0,1,1,0.0,1,1.0,0,1.0,0,1.0,0,1.0
8,195,'1',0.00986,0.02697,0.00199,53.1,53.1,53.1,0.0,0.0,0.0,0.0,1,1,4.01,1,1.0,0,1.0,0,1.0,0,1.0
8,196,'1',0.00814,0.01812,0.00374,130.2,130.2,130.2,0.0,0.0,0.0,0.0,1,1,4.54,1,1.0,0,1.0,0,1.0,0,1.0
8,330,'1',0.01447,0.03495,0.00027,57.1,57.1,57.1,0.0,0.0,0.0,0.0,1,1,2.54,1,1.0,0,1.0,0,1.0,0,1.0
9,13,'1',0.00229,0.01313,0.00106,246.1,246.1,246.1,0.0,0.0,0.0,0.0,1,1,2.84,1,1.0,0,1.0,0,1.0,0,1.0
10,173,'1',0.00409,0.02949,0.00252,183.2,183.2,183.2,0.0,0.0,0.0,0.0,1,1,6.39,1,1.0,0,1.0,0,1.0,0,1.0
11,194,'1',0.02793,0.07798,0.00316,53.8,53.8,53.8,0.0,0.0,0.0,0.0,1,1,9.97,1,1.0,0,1.0,0,1.0,0,1.0
11,426,'1',0.00977,0.02571,0.00188,62.4,62.4,62.4,0.0,0.0,0.0,0.0,1,1,4.88,1,1.0,0,1.0,0,1.0,0,1.0
11,439,'1',0.01065,0.02922,0.00073,56.3,56.3,56.3,0.0,0.0,0.0,0.0,1,1,3.81,1,1.0,0,1.0,0,1.0,0,1.0
12,14,'1',0.01389,0.03578,0.0005,60.0,60.0,60.0,0.0,0.0,0.0,0.0,1,1,3.24,1,1.0,0,1.0,0,1.0,0,1.0
12,412,'1',0.03383,0.07323,0.00175,75.0,75.0,75.0,0.0,0.0,0.0,0.0,1,1,7.4,1,1.0,0,1.0,0,1.0,0,1.0
12,412,'2',0.03383,0.07323,0.00175,75.0,75.0,75.0,0.0,0.0,0.0,0.0,1,1,7.4,1,1.0,0,1.0,0,1.0,0,1.0
13,257,'1',0.0087,0.03396,0.03219,214.3,214.3,214.3,0.0,0.0,0.0,0.0,1,1,18.2,1,1.0,0,1.0,0,1.0,0,1.0
13,265,'1',0.00659,0.03908,0.0269,218.8,218.8,218.8,0.0,0.0,0.0,0.0,1,1,17.08,1,1.0,0,1.0,0,1.0,0,1.0
13,329,'1',0.00264,0.01373,0.00772,236.8,236.8,236.8,0.0,0.0,0.0,0.0,1,1,6.99,1,1.0,0,1.0,0,1.0,0,1.0
15,8,'1',0.00891,0.01924,0.00072,74.2,74.2,74.2,0.0,0.0,0.0,0.0,1,1,2.6,1,1.0,0,1.0,0,1.0,0,1.0
15,264,'1',0.00813,0.01726,0.00511,70.3,70.3,70.3,0.0,0.0,0.0,0.0,1,1,6.28,1,1.0,0,1.0,0,1.0,0,1.0
15,323,'1',0.03021,0.07932,0.00127,69.1,69.1,69.1,0.0,0.0,0.0,0.0,1,1,6.6,1,1.0,0,1.0,0,1.0,0,1.0
16,18,'1',0.0149,0.0381,0.00092,65.3,65.3,65.3,0.0,0.0,0.0,0.0,1,1,3.37,1,1.0,0,1.0,0,1.0,0,1.0
17,16,'1',0.0185,0.03503,0.00068,58.2,58.2,58.2,0.0,0.0,0.0,0.0,1,1,2.6,1,1.0,0,1.0,0,1.0,0,1.0
17,63,'1',0.04841,0.09586,0.00166,58.4,58.4,58.4,0.0,0.0,0.0,0.0,1,1,7.98,1,1.0,0,1.0,0,1.0,0,1.0
17,180,'1',0.01114,0.02965,0.01273,80.0,80.0,80.0,0.0,0.0,0.0,0.0,1,1,14.02,1,1.0,0,1.0,0,1.0,0,1.0
19,21,'1',0.00025,0.00116,0.0,165.6,165.6,165.6,0.0,0.0,0.0,0.0,1,1,0.0,1,1.0,0,1.0,0,1.0,0,1.0
20,18,'1',0.01014,0.02702,0.0003,60.7,60.7,60.7,0.0,0.0,0.0,0.0,1,1,2.22,1,1.0,0,1.0,0,1.0,0,1.0
20,64,'1',0.01277,0.03556,0.00503,53.9,53.9,53.9,0.0,0.0,0.0,0.0,1,1,7.72,1,1.0,0,1.0,0,1.0,0,1.0
21,92,'1',0.01189,0.04169,0.01094,193.4,193.4,193.4,0.0,0.0,0.0,0.0,1,1,12.02,1,1.0,0,1.0,0,1.0,0,1.0
22,577,'1',0.046,0.07097,0.00477,56.3,56.3,56.3,0.0,0.0,0.0,0.0,1,1,13.31,1,1.0,0,1.0,0,1.0,0,1.0
24,23,'1',0.01954,0.05007,0.00171,44.9,44.9,44.9,0.0,0.0,0.0,0.0,1,1,6.04,1,1.0,0,1.0,0,1.0,0,1.0
25,26,'1',0.0,0.001,0.0,82.8,82.8,82.8,0.0,0.0,0.0,0.0,1,1,0.0,1,1.0,0,1.0,0,1.0,0,1.0
25,69,'1',0.03099,0.08461,0.00075,48.7,48.7,48.7,0.0,0.0,0.0,0.0,1,1,5.05,1,1.0,0,1.0,0,1.0,0,1.0
25,324,'1',0.05501,0.14863,0.0122,64.6,64.6,64.6,0.0,0.0,0.0,0.0,1,1,24.16,1,1.0,0,1.0,0,1.0,0,1.0
25,352,'1',0.00927,0.02691,0.00532,58.3,58.3,58.3,0.0,0.0,0.0,0.0,1,1,7.18,1,1.0,0,1.0,0,1.0,0,1.0
27,28,'1',0.00027,0.00112,0.0,82.8,82.8,82.8,0.0,0.0,0.0,0.0,1,1,0.0,1,1.0,0,1.0,0,1.0,0,1.0
27,303,'1',0.0175,0.04935,0.00133,52.5,52.5,52.5,0.0,0.0,0.0,0.0,1,1,4.9,1,1.0,0,1.0,0,1.0,0,1.0
29,27,'1',0.03729,0.08293,0.00079,55.4,55.4,55.4,0.0,0.0,0.0,0.0,1,1,6.2,1,1.0,0,1.0,0,1.0,0,1.0
29,144,'1',0.01518,0.04249,0.00288,65.3,65.3,65.3,0.0,0.0,0.0,0.0,1,1,7.41,1,1.0,0,1.0,0,1.0,0,1.0
30,121,'1',0.04104,0.11293,0.00424,62.3,62.3,62.3,0.0,0.0,0.0,0.0,1,1,12.97,1,1.0,0,1.0,0,1.0,0,1.0
30,374,'1',0.06457,0.16601,0.00349,59.1,59.1,59.1,0.0,0.0,0.0,0.0,1,1,12.99,1,1.0,0,1.0,0,1.0,0,1.0
32,226,'1',0.02188,0.05892,0.00142,65.4,65.4,65.4,0.0,0.0,0.0,0.0,1,1,5.75,1,1.0,0,1.0,0,1.0,0,1.0
32,287,'1',0.04149,0.07396,0.00185,71.6,71.6,71.6,0.0,0.0,0.0,0.0,1,1,7.14,1,1.0,0,1.0,0,1.0,0,1.0
33,32,'1',0.02363,0.05725,0.00363,100.0,100.0,100.0,0.0,0.0,0.0,0.0,1,1,9.07,1,1.0,0,1.0,0,1.0,0,1.0
33,45,'1',0.01601,0.04724,0.00496,61.8,61.8,61.8,0.0,0.0,0.0,0.0,1,1,8.34,1,1.0,0,1.0,0,1.0,0,1.0
34,36,'1',0.00027,0.001,0.0,200.0,200.0,200.0,0.0,0.0,0.0,0.0,1,1,0.0,1,1.0,0,1.0,0,1.0,0,1.0
35,149,'1',0.00928,0.02211,0.00043,66.4,66.4,66.4,0.0,0.0,0.0,0.0,1,1,2.4,1,1.0,0,1.0,0,1.0,0,1.0
35,151,'1',0.00318,0.01048,0.00051,82.7,82.7,82.7,0.0,0.0,0.0,0.0,1,1,1.39,1,1.0,0,1.0,0,1.0,0,1.0
35,151,'2',0.00318,0.01048,0.00051,82.7,82.7,82.7,0.0,0.0,0.0,0.0,1,1,1.39,1,1.0,0,1.0,0,1.0,0,1.0
36,37,'1',0.00631,0.03158,0.00755,243.3,243.3,243.3,0.0,0.0,0.0,0.0,1,1,9.57,1,1.0,0,1.0,0,1.0,0,1.0
36,114,'1',0.00504,0.03449,0.13787,350.0,350.0,350.0,0.0,0.0,0.0,0.0,1,1,36.05,1,1.0,0,1.0,0,1.0,0,1.0
36,114,'2',0.00504,0.03449,0.13787,350.0,350.0,350.0,0.0,0.0,0.0,0.0,1,1,36.05,1,1.0,0,1.0,0,1.0,0,1.0
36,411,'1',0.00629,0.03107,0.00742,264.1,264.1,264.1,0.0,0.0,0.0,0.0,1,1,10.08,1,1.0,0,1.0,0,1.0,0,1.0
37,136,'1',0.00514,0.02521,0.03353,226.0,226.0,226.0,0.0,0.0,0.0,0.0,1,1,15.66,1,1.0,0,1.0,0,1.0,0,1.0
38,145,'1',0.00866,0.01765,0.00018,62.1,62.1,62.1,0.0,0.0,0.0,0.0,1,1,1.36,1,1.0,0,1.0,0,1.0,0,1.0
38,281,'1',0.01075,0.03111,0.00205,55.7,55.7,55.7,0.0,0.0,0.0,0.0,1,1,4.96,1,1.0,0,1.0,0,1.0,0,1.0
39,35,'1',0.01386,0.03798,0.00105,68.3,68.3,68.3,0.0,0.0,0.0,0.0,1,1,3.88,1,1.0,0,1.0,0,1.0,0,1.0
39,40,'1',0.0,0.001,0.0,82.8,82.8,82.8,0.0,0.0,0.0,0.0,1,1,0.0,1,1.0,0,1.0,0,1.0,0,1.0
39,41,'1',0.01749,0.05347,0.00123,68.1,68.1,68.1,0.0,0.0,0.0,0.0,1,1,5.08,1,1.0,0,1.0,0,1.0,0,1.0
40,146,'1',0.01479,0.02784,0.00026,59.1,59.1,59.1,0.0,0.0,0.0,0.0,1,1,0.0,1,1.0,0,1.0,0,1.0,0,1.0
41,412,'1',0.01536,0.04278,0.0005,72.7,72.7,72.7,0.0,0.0,0.0,0.0,1,1,3.13,1,1.0,0,1.0,0,1.0,0,1.0
42,43,'1',0.00023,0.00116,0.0,82.8,82.8,82.8,0.0,0.0,0.0,0.0,1,1,0.0,1,1.0,0,1.0,0,1.0,0,1.0
42,147,'1',0.01021,0.02569,0.00031,85.0,85.0,85.0,0.0,0.0,0.0,0.0,1,1,1.89,1,1.0,0,1.0,0,1.0,0,1.0
42,172,'1',0.01034,0.02954,0.00188,55.8,55.8,55.8,0.0,0.0,0.0,0.0,1,1,4.8,1,1.0,0,1.0,0,1.0,0,1.0
44,45,'1',0.00028,0.00119,0.0,82.8,82.8,82.8,0.0,0.0,0.0,0.0,1,1,0.0,1,1.0,0,1.0,0,1.0,0,1.0
46,31,'1',0.05038,0.10012,0.00098,53.7,53.7,53.7,0.0,0.0,0.0,0.0,1,1,5.73,1,1.0,0,1.0,0,1.0,0,1.0
47,50,'1',0.0344,0.09608,0.00122,53.3,53.3,53.3,0.0,0.0,0.0,0.0,1,1,6.98,1,1.0,0,1.0,0,1.0,0,1.0
48,49,'1',0.00024,0.00112,0.0,82.8,82.8,82.8,0.0,0.0,0.0,0.0,1,1,0.0,1,1.0,0,1.0,0,1.0,0,1.0
49,50,'1',0.02865,0.06052,0.00083,50.0,50.0,50.0,0.0,0.0,0.0,0.0,1,1,4.61,1,1.0,0,1.0,0,1.0,0,1.0
49,1700,'1',0.04331,0.11095,0.00129,55.9,55.9,55.9,0.0,0.0,0.0,0.0,1,1,7.51,1,1.0,0,1.0,0,1.0,0,1.0
50,51,'1',0.00027,0.00119,0.0,82.8,82.8,82.8,0.0,0.0,0.0,0.0,1,1,0.0,1,1.0,0,1.0,0,1.0,0,1.0
50,1705,'1',0.01821,0.04815,0.00344,57.0,57.0,57.0,0.0,0.0,0.0,0.0,1,1,7.42,1,1.0,0,1.0,0,1.0,0,1.0
52,297,'1',0.03139,0.07961,0.00091,55.5,55.5,55.5,0.0,0.0,0.0,0.0,1,1,6.11,1,1.0,0,1.0,0,1.0,0,1.0
52,1907,'1',0.07425,0.14976,0.0053,58.1,58.1,58.1,0.0,0.0,0.0,0.0,1,1,14.77,1,1.0,0,1.0,0,1.0,0,1.0
53,52,'1',0.0326,0.07476,0.00221,47.7,47.7,47.7,0.0,0.0,0.0,0.0,1,1,7.63,1,1.0,0,1.0,0,1.0,0,1.0
53,54,'1',0.00027,0.00112,0.0,82.8,82.8,82.8,0.0,0.0,0.0,0.0,1,1,0.0,1,1.0,0,1.0,0,1.0,0,1.0
55,57,'1',0.0003,0.0011,0.0,414.0,414.0,414.0,0.0,0.0,0.0,0.0,1,1,0.0,1,1.0,0,1.0,0,1.0,0,1.0
55,1614,'1',0.00798,0.04074,0.02479,183.5,183.5,183.5,0.0,0.0,0.0,0.0,1,1,17.41,1,1.0,0,1.0,0,1.0,0,1.0
58,56,'1',0.02677,0.04946,0.00059,59.6,59.6,59.6,0.0,0.0,0.0,0.0,1,1,3.35,1,1.0,0,1.0,0,1.0,0,1.0
59,56,'1',0.01262,0.03339,0.00061,65.5,65.5,65.5,0.0,0.0,0.0,0.0,1,1,3.05,1,1.0,0,1.0,0,1.0,0,1.0
60,62,'1',0.03515,0.10136,0.00063,54.1,54.1,54.1,0.0,0.0,0.0,0.0,1,1,5.27,1,1.0,0,1.0,0,1.0,0,1.0
62,1603,'1',0.03241,0.07489,0.0092,49.6,49.6,49.6,0.0,0.0,0.0,0.0,1,1,13.98,1,1.0,0,1.0,0,1.0,0,1.0
63,67,'1',0.02682,0.06666,0.00147,62.2,62.2,62.2,0.0,0.0,0.0,0.0,1,1,5.95,1,1.0,0,1.0,0,1.0,0,1.0
64,91,'1',0.0235,0.05751,0.00114,55.9,55.9,55.9,0.0,0.0,0.0,0.0,1,1,5.19,1,1.0,0,1.0,0,1.0,0,1.0
65,66,'1',0.03205,0.08264,0.00173,60.6,60.6,60.6,0.0,0.0,0.0,0.0,1,1,6.92,1,1.0,0,1.0,0,1.0,0,1.0
65,109,'1',0.0582,0.10902,0.00112,57.9,57.9,57.9,0.0,0.0,0.0,0.0,1,1,6.98,1,1.0,0,1.0,0,1.0,0,1.0
67,71,'1',0.03739,0.09462,0.00638,78.4,78.4,78.4,0.0,0.0,0.0,0.0,1,1,13.19,1,1.0,0,1.0,0,1.0,0,1.0
68,69,'1',0.03605,0.07795,0.00168,55.9,55.9,55.9,0.0,0.0,0.0,0.0,1,1,7.15,1,1.0,0,1.0,0,1.0,0,1.0
68,269,'1',0.01673,0.04281,0.00189,52.3,52.3,52.3,0.0,0.0,0.0,0.0,1,1,5.86,1,1.0,0,1.0,0,1.0,0,1.0
69,22,'1',0.02552,0.06993,0.00167,52.1,52.1,52.1,0.0,0.0,0.0,0.0,1,1,7.44,1,1.0,0,1.0,0,1.0,0,1.0
70,72,'1',0.00024,0.00118,0.0,165.6,165.6,165.6,0.0,0.0,0.0,0.0,1,1,0.0,1,1.0,0,1.0,0,1.0,0,1.0
70,1908,'1',0.00723,0.03362,0.01815,187.2,187.2,187.2,0.0,0.0,0.0,0.0,1,1,13.36,1,1.0,0,1.0,0,1.0,0,1.0
71,107,'1',0.05494,0.10268,0.0026,57.7,57.7,57.7,0.0,0.0,0.0,0.0,1,1,9.75,1,1.0,0,1.0,0,1.0,0,1.0
73,75,'1',0.00028,0.00107,0.0,165.6,165.6,165.6,0.0,0.0,0.0,0.0,1,1,0.0,1,1.0,0,1.0,0,1.0,0,1.0
75,84,'1',0.00521,0.02882,0.00405,208.8,208.8,208.8,0.0,0.0,0.0,0.0,1,1,7.44,1,1.0,0,1.0,0,1.0,0,1.0
76,2020,'1',0.0024,0.02943,0.38186,1035.0,1035.0,1035.0,0.0,0.0,0.0,0.0,1,1,59.77,1,1.0,0,1.0,0,1.0,0,1.0
77,84,'1',0.00479,0.03165,0.0031,210.6,210.6,210.6,0.0,0.0,0.0,0.0,1,1,5.69,1,1.0,0,1.0,0,1.0,0,1.0
77,85,'1',0.00594,0.03048,0.00769,254.8,254.8,254.8,0.0,0.0,0.0,0.0,1,1,8.92,1,1.0,0,1.0,0,1.0,0,1.0
78,94,'1',0.00615,0.01244,0.00026,69.3,69.3,69.3,0.0,0.0,0.0,0.0,1,1,0.0,1,1.0,0,1.0,0,1.0,0,1.0
78,95,'1',0.03284,0.07257,0.00169,71.9,71.9,71.9,0.0,0.0,0.0,0.0,1,1,6.89,1,1.0,0,1.0,0,1.0,0,1.0
78,97,'1',0.02774,0.05582,0.00315,62.5,62.5,62.5,0.0,0.0,0.0,0.0,1,1,8.01,1,1.0,0,1.0,0,1.0,0,1.0
79,78,'1',0.02001,0.05675,0.00131,53.9,53.9,53.9,0.0,0.0,0.0,0.0,1,1,5.41,1,1.0,0,1.0,0,1.0,0,1.0
79,86,'1',0.01566,0.03864,0.00125,67.1,67.1,67.1,0.0,0.0,0.0,0.0,1,1,4.67,1,1.0,0,1.0,0,1.0,0,1.0
80,376,'1',0.03789,0.09223,0.00152,66.3,66.3,66.3,0.0,0.0,0.0,0.0,1,1,8.1,1,1.0,0,1.0,0,1.0,0,1.0
81,80,'1',0.02967,0.07681,0.00046,64.2,64.2,64.2,0.0,0.0,0.0,0.0,1,1,4.42,1,1.0,0,1.0,0,1.0,0,1.0
81,93,'1',0.01988,0.04902,0.00211,58.3,58.3,58.3,0.0,0.0,0.0,0.0,1,1,7.02,1,1.0,0,1.0,0,1.0,0,1.0
82,84,'1',0.00029,0.00102,0.0,414.0,414.0,414.0,0.0,0.0,0.0,0.0,1,1,0.0,1,1.0,0,1.0,0,1.0,0,1.0
83,81,'1',0.00381,0.01076,0.0003,57.4,57.4,57.4,0.0,0.0,0.0,0.0,1,1,1.07,1,1.0,0,1.0,0,1.0,0,1.0
84,96,'1',0.00631,0.03691,0.01119,194.9,194.9,194.9,0.0,0.0,0.0,0.0,1,1,12.93,1,1.0,0,1.0,0,1.0,0,1.0
85,87,'1',0.00024,0.00113,0.0,165.6,165.6,165.6,0.0,0.0,0.0,0.0,1,1,0.0,1,1.0,0,1.0,0,1.0,0,1.0
85,114,'1',0.00742,0.04285,0.08388,261.2,261.2,261.2,0.0,0.0,0.0,0.0,1,1,33.39,1,1.0,0,1.0,0,1.0,0,1.0
85,1759,'1',0.00469,0.02961,0.03061,325.0,325.0,325.0,0.0,0.0,0.0,0.0,1,1,16.4,1,1.0,0,1.0,0,1.0,0,1.0
86,80,'1',0.01903,0.045,0.00115,62.2,62.2,62.2,0.0,0.0,0.0,0.0,1,1,5.09,1,1.0,0,1.0,0,1.0,0,1.0
88,1759,'1',0.01016,0.06325,0.01348,187.2,187.2,187.2,0.0,0.0,0.0,0.0,1,1,16.14,1,1.0,0,1.0,0,1.0,0,1.0
89,376,'1',0.0307,0.08586,0.00065,57.5,57.5,57.5,0.0,0.0,0.0,0.0,1,1,5.36,1,1.0,0,1.0,0,1.0,0,1.0
90,92,'1',0.00023,0.00103,0.0,414.0,414.0,414.0,0.0,0.0,0.0,0.0,1,1,0.0,1,1.0,0,1.0,0,1.0,0,1.0
92,77,'1',0.00549,0.03185,0.00652,216.6,216.6,216.6,0.0,0.0,0.0,0.0,1,1,8.99,1,1.0,0,1.0,0,1.0,0,1.0
93,78,'1',0.00615,0.01244,0.00026,69.3,69.3,69.3,0.0,0.0,0.0,0.0,1,1,1.02,1,1.0,0,1.0,0,1.0,0,1.0
93,94,'1',0.0,0.001,0.0,82.8,82.8,82.8,0.0,0.0,0.0,0.0,1,1,0.0,1,1.0,0,1.0,0,1.0,0,1.0
94,81,'1',0.01988,0.04902,0.00211,58.3,58.3,58.3,0.0,0.0,0.0,0.0,1,1,0.0,1,1.0,0,1.0,0,1.0,0,1.0
95,74,'1',0.01816,0.04437,0.00069,58.9,58.9,58.9,0.0,0.0,0.0,0.0,1,1,3.65,1,1.0,0,1.0,0,1.0,0,1.0
96,77,'1',0.00225,0.01514,0.0116,210.8,210.8,210.8,0.0,0.0,0.0,0.0,1,1,9.14,1,1.0,0,1.0,0,1.0,0,1.0
97,71,'1',0.03271,0.08645,0.00135,63.9,63.9,63.9,0.0,0.0,0.0,0.0,1,1,7.04,1,1.0,0,1.0,0,1.0,0,1.0
98,99,'1',0.00897,0.01897,0.00274,60.1,60.1,60.1,0.0,0.0,0.0,0.0,1,1,5.06,1,1.0,0,1.0,0,1.0,0,1.0
98,323,'1',0.01478,0.05109,0.01283,61.7,61.7,61.7,0.0,0.0,0.0,0.0,1,1,13.57,1,1.0,0,1.0,0,1.0,0,1.0
...